
<additional>>
    <tlLogic id="1575325597" type="static" programID="2" offset="0">
        <phase duration="%ac" state="gggrrr"/>
        <phase duration="6"  state="gggyyy"/>
        <phase duration="%ac" state="gggGGG"/>
        <phase duration="6"  state="gggyyy"/>
    </tlLogic>
    <tlLogic id="1575361842" type="static" programID="2" offset="0">
        <phase duration="%ac" state="gggGGG"/>
        <phase duration="6"  state="gggyyy"/>
        <phase duration="%ac" state="gggrrr"/>
		<phase duration="6"  state="gggyyy"/>
    </tlLogic>
    <tlLogic id="1693014276" type="static" programID="2" offset="0">
        <phase duration="%ac" state="gggrrr"/>
        <phase duration="6"  state="gggrrr"/>
        <phase duration="%ac" state="gggGGG"/>
        <phase duration="6"  state="gggyyy"/>
    </tlLogic>
    <tlLogic id="210330099" type="static" programID="2" offset="0">
        <phase duration="%ac" state="GGGggg"/>
        <phase duration="6"  state="yyyggg"/>
        <phase duration="%ac" state="rrrggg"/>
        <phase duration="6"  state="rrrggg"/>
    </tlLogic>
</additional>
              