<?xml version="1.0" encoding="UTF-8"?>

<!-- generated on 10/21/20 13:09:12 by Eclipse SUMO duarouter Version 1.6.0
<configuration xmlns:xsi="http://www.w3.org/2001/XMLSchema-instance" xsi:noNamespaceSchemaLocation="http://sumo.dlr.de/xsd/duarouterConfiguration.xsd">

    <input>
        <net-file value="test.net.xml"/>
        <route-files value="trips.trips.xml"/>
    </input>

    <output>
        <output-file value="map.rou.xml"/>
        <alternatives-output value="map.rou.alt.xml"/>
    </output>

    <time>
        <begin value="0"/>
        <end value="500.0"/>
    </time>

    <report>
        <no-warnings value="true"/>
        <ignore-errors value="true"/>
        <no-step-log value="true"/>
    </report>

</configuration>
-->

<routes xmlns:xsi="http://www.w3.org/2001/XMLSchema-instance" xsi:noNamespaceSchemaLocation="http://sumo.dlr.de/xsd/routes_file.xsd">
    <vehicle id="0" depart="0.00">
        <route edges="143955381#1 29240869#0 29240869#1 29047361#0"/>
    </vehicle>
    <vehicle id="1" depart="1.00">
        <route edges="-239696920 239696920 24375222#1 24375222#2 24375222#3 157062068 170115770#0"/>
    </vehicle>
    <vehicle id="2" depart="2.00">
        <route edges="143955381#1"/>
    </vehicle>
    <vehicle id="3" depart="3.00">
        <route edges="24375222#0 24375222#1 24375222#2 24375222#3 24375222#4 24375222#5 13847053#0 13847053#1 619526004#0 -29023952 -23747533#0 170115771#0 170115771#1 170115771#2 170115771#3 -29024142#2 29024148 384311993#1 384311993#2 384311993#3 143957229#0 143957229#1 29047356#0 29047356#1 29047356#2 29047356#3 -29240869#2 -29240869#1 -29240869#0 29240869#0"/>
    </vehicle>
    <vehicle id="4" depart="4.00">
        <route edges="-23747533#2 -23747533#1 -23747533#0 170115771#0 170115771#1 170115771#2 170115771#3 -29024142#2 29024148 384311993#1 384311993#2 384311993#3 143957229#0 143957229#1 29047356#0 29047356#1 29047356#2 29047356#3"/>
    </vehicle>
    <vehicle id="5" depart="5.00">
        <route edges="29240869#0 29240869#1 29240869#2 -29047356#3"/>
    </vehicle>
    <vehicle id="6" depart="6.00">
        <route edges="143955381#4 143955381#5 143955381#6 170115770#0 -29288480#3 29047128 24375222#3 24375222#4 24375222#5 13847053#0 13847053#1 13847053#2"/>
    </vehicle>
    <vehicle id="7" depart="7.00">
        <route edges="-23747533#2 -23747533#1 -23747533#0 170115771#0 170115771#1 170115771#2 170115771#3 -29024142#2 29024148 -29024148"/>
    </vehicle>
    <vehicle id="8" depart="8.00">
        <route edges="24375222#0 24375222#1 24375222#2 24375222#3 24375222#4 24375222#5 13847053#0 13847053#1 619526004#0 -29023952 -23747533#0 170115771#0 170115771#1 170115771#2 170115771#3 -29024142#2 29024148 384311993#1 384311993#2 384311993#3 143957229#0 143957229#1 143957229#2"/>
    </vehicle>
    <vehicle id="9" depart="9.00">
        <route edges="384311993#0 384311993#1 384311993#2 384311993#3 143957229#0 143957229#1 29047356#0 29047356#1 29047356#2 -143955383#3 -143955383#2 -143955383#1 -143955383#0 143955381#3 143955381#4 143955381#5 143955381#6 170115770#0 -29288480#3 -29288480#2 -29288480#1 -29288480#0"/>
    </vehicle>
    <vehicle id="10" depart="10.00">
        <route edges="24375222#0 24375222#1 24375222#2 24375222#3 24375222#4 24375222#5 13847053#0 13847053#1 619526004#0 -29023952 -23747533#0 170115771#0 170115771#1 170115771#2 170115771#3 -29024142#2 29024148 384311993#1 384311993#2 384311993#3 143957229#0 143957229#1 29047356#0 29047356#1 29047356#2 29047356#3 -29240869#2 29047361#0 29047361#1"/>
    </vehicle>
    <vehicle id="11" depart="11.00">
        <route edges="24375222#0 24375222#1 32109003 -29288480#1"/>
    </vehicle>
    <vehicle id="13" depart="13.00">
        <route edges="384311993#0 384311993#1 157062088 170115771#3 170115771#4"/>
    </vehicle>
    <vehicle id="14" depart="14.00">
        <route edges="384311993#0 -29024148 29024142#2"/>
    </vehicle>
    <vehicle id="15" depart="15.00">
        <route edges="-239696920 239696920 24375222#1 24375222#2 24375222#3 24375222#4 24375222#5 13847053#0 13847053#1 13847053#2"/>
    </vehicle>
    <vehicle id="17" depart="17.00">
        <route edges="591497173 -591494101 143955383#3 -29047356#2 -29047356#1 -29047356#0 143957229#2"/>
    </vehicle>
    <vehicle id="19" depart="19.00">
        <route edges="24375222#0 24375222#1 24375222#2 24375222#3 24375222#4 24375222#5 13847053#0 13847053#1 619526004#0 -29023952 -23747533#0 170115771#0 170115771#1 170115771#2 170115771#3 -29024142#2 29024148 384311993#1 384311993#2 384311993#3 143957229#0 143957229#1 143957229#2"/>
    </vehicle>
    <vehicle id="20" depart="20.00">
        <route edges="29288480#0 29288480#1 29288480#2 29288480#3 170115770#1 -29240864"/>
    </vehicle>
    <vehicle id="21" depart="21.00">
        <route edges="29024142#0 29024142#1 29024148 384311993#1 384311993#2 384311993#3 143957229#0 143957229#1 143957229#2"/>
    </vehicle>
    <vehicle id="22" depart="22.00">
        <route edges="-29047356#1 591497173 -29240871 -143955383#0 143955381#3 143955381#4 143955381#5 143955381#6 170115770#0 -29288480#3 29047128 24375222#3 24375222#4 24375222#5 13847053#0 13847053#1 13847053#2"/>
    </vehicle>
    <vehicle id="23" depart="23.00">
        <route edges="29047128"/>
    </vehicle>
    <vehicle id="24" depart="24.00">
        <route edges="384311993#0 384311993#1 384311993#2 384311993#3 143957229#0 143957229#1 29047356#0 29047356#1 29047356#2 -143955383#3 -143955383#2 -143955383#1 -143955383#0 143955381#3 143955381#4 143955381#5 143955381#6 170115770#0 -29288480#3 29047128 24375222#3 24375222#4 24375222#5 13847053#0 13847053#1 619526004#0 -29023952 -23747533#0 170115772"/>
    </vehicle>
    <vehicle id="25" depart="25.00">
        <route edges="143955381#1 143955381#2 143955381#3 143955381#4 143955381#5 143955381#6 170115770#0 -29288480#3 29047128 24375222#3 24375222#4 24375222#5 13847053#0 13847053#1 619526004#0 -29023952 -23747533#0 170115771#0 170115771#1 170115771#2 170115771#3 -29024142#2 -29024142#1 -29024324 29024324 29024142#1 29024142#2"/>
    </vehicle>
    <vehicle id="26" depart="26.00">
        <route edges="29240871 -591494101 -143955383#2 -32109005 29240869#1 29047361#0 29047361#1"/>
    </vehicle>
    <vehicle id="27" depart="27.00">
        <route edges="-29047356#3 -29047356#2 -29047356#1 -29047356#0 143957229#2"/>
    </vehicle>
    <vehicle id="28" depart="28.00">
        <route edges="-29047361#1 -29047361#0 -29240869#1 -29240869#0 143955381#2 143955381#3 143955381#4 143955381#5 143955381#6 170115770#0 170115770#1 170115770#2 170115770#3"/>
    </vehicle>
    <vehicle id="29" depart="29.00">
        <route edges="-29047361#1 -29047361#0 -29240869#1 -29240869#0 143955381#2 143955381#3 143955381#4 143955381#5 143955381#6 170115770#0 -29288480#3 29047128 24375222#3 24375222#4 24375222#5 13847053#0 13847053#1 619526004#0 -29023952 -23747533#0 170115771#0 170115771#1 170115771#2 170115771#3 -29024142#2 29024148 -29024148"/>
    </vehicle>
    <vehicle id="31" depart="31.00">
        <route edges="-239696920 239696920 24375222#1 24375222#2 24375222#3 24375222#4 24375222#5 13847053#0 13847053#1 619526004#0 -29023952 -23747533#0 170115771#0 170115771#1 170115771#2 170115771#3 -29024142#2 29024148 384311993#1 384311993#2 384311993#3 143957229#0 143957229#1 29047356#0 29047356#1 29047356#2 -143955383#3 -143955383#2 -143955383#1 -143955383#0 143955381#3 143957233"/>
    </vehicle>
    <vehicle id="32" depart="32.00">
        <route edges="143955381#3 143955381#4 143955381#5 143955381#6 170115770#0 170115770#1 170115770#2 170115770#3"/>
    </vehicle>
    <vehicle id="36" depart="36.00">
        <route edges="143955381#1 143955381#2 143955381#3 143955381#4 143955381#5 143955381#6 170115770#0 -29288480#3 -29288480#2 -29288480#1 -29288480#0"/>
    </vehicle>
    <vehicle id="37" depart="37.00">
        <route edges="-29023952 -23747533#0 170115772 13847053#1 13847053#2"/>
    </vehicle>
    <vehicle id="38" depart="38.00">
        <route edges="-29047390 -29047361#0 -29240869#1 -29240869#0 143955381#2 143955381#3 143955381#4 143955381#5 143955381#6 170115770#0 -29288480#3 29047128 24375222#3 24375222#4 24375222#5 13847053#0 13847053#1 619526004#0 -29023952 -23747533#0 170115771#0 170115771#1 170115771#2 170115771#3 -29024142#2 -29024142#1 -29024324 29024324 29024142#1 29024142#2"/>
    </vehicle>
    <vehicle id="41" depart="41.00">
        <route edges="143955381#1 143955381#2 143955383#0 143955383#1 143955383#2 143955383#3 29047356#3"/>
    </vehicle>
    <vehicle id="42" depart="42.00">
        <route edges="13847053#1 619526004#0 -29023952 -23747533#0 170115771#0 170115771#1 170115771#2 170115771#3 -29024142#2 29024148 384311993#1 384311993#2 384311993#3 143957229#0 143957229#1 29047356#0 29047356#1 29047356#2 29047356#3 -29240869#2 -29240869#1 32109005"/>
    </vehicle>
    <vehicle id="43" depart="43.00">
        <route edges="143955381#1 143955381#2 143955381#3 143955381#4 143955381#5 143955381#6 170115770#0 -29288480#3 -29288480#2 -29288480#1 -29288480#0"/>
    </vehicle>
    <vehicle id="44" depart="44.00">
        <route edges="384311993#0 384311993#1 384311993#2 384311993#3 143957229#0 143957229#1 29047356#0 29047356#1 29047356#2 -143955383#3 -143955383#2 -32109005"/>
    </vehicle>
    <vehicle id="45" depart="45.00">
        <route edges="143955381#1 143955381#2 143955381#3 143955381#4 143955381#5 143955381#6 170115770#0 170115770#1 170115770#2 170115770#3"/>
    </vehicle>
    <vehicle id="46" depart="46.00">
        <route edges="170115772 13847053#1 619526004#0 -29023952 -23747533#0 170115771#0 170115771#1 170115771#2 170115771#3 -29024142#2 29024148 384311993#1 384311993#2 384311993#3 143957229#0 143957229#1 143957229#2"/>
    </vehicle>
    <vehicle id="47" depart="47.00">
        <route edges="143955381#1 143955381#2 143955381#3 143955381#4 143955381#5 143955381#6 170115770#0 -29288480#3 29047128 24375222#3 24375222#4 24375222#5 13847053#0 13847053#1 619526004#0 -29023952 -23747533#0 170115771#0 170115771#1 170115771#2 170115771#3 -29024142#2 29024148"/>
    </vehicle>
    <vehicle id="48" depart="48.00">
        <route edges="-29240871 -143955383#0 143955381#3 143957233 143957229#1 29047356#0 29047356#1"/>
    </vehicle>
    <vehicle id="49" depart="49.00">
        <route edges="29023952 -29023952 -23747533#0 170115772 13847053#1"/>
    </vehicle>
    <vehicle id="51" depart="51.00">
        <route edges="29024142#0 29024142#1 29024148 384311993#1 384311993#2 384311993#3 143957229#0 143957229#1 29047356#0 29047356#1 29047356#2 -143955383#3 -143955383#2 -143955383#1 -143955383#0 143955381#3 143955381#4 143955381#5 143955381#6 170115770#0 170115770#1"/>
    </vehicle>
    <vehicle id="52" depart="52.00">
        <route edges="143955381#1 143955381#2 143955381#3 143955381#4 143955381#5 143955381#6 170115770#0 -29288480#3 29047128 24375222#3 24375222#4 24375222#5 13847053#0 13847053#1 13847053#2"/>
    </vehicle>
    <vehicle id="53" depart="53.00">
        <route edges="-32109003 24375222#2 24375222#3 24375222#4 24375222#5 13847053#0 13847053#1 619526004#0 -29023952 -23747533#0 170115771#0 170115771#1 170115771#2 170115771#3 -29024142#2 29024148 384311993#1 384311993#2 384311993#3 143957229#0 143957229#1 143957229#2"/>
    </vehicle>
    <vehicle id="54" depart="54.00">
        <route edges="143955381#1 143955381#2 143955383#0 29240871"/>
    </vehicle>
    <vehicle id="56" depart="56.00">
        <route edges="384311993#0 384311993#1 384311993#2 384311993#3 143957229#0 143957229#1 29047356#0 29047356#1 29047356#2 -143955383#3 -143955383#2 -143955383#1 -143955383#0 143955381#3 143955381#4 143955381#5 143955381#6 170115770#0 -29288480#3 29047128 24375222#3 24375222#4 24375222#5 13847053#0 13847053#1 619526004#0 -619526004#0"/>
    </vehicle>
    <vehicle id="57" depart="57.00">
        <route edges="-23747533#2 -23747533#1 -23747533#0 170115771#0 170115771#1 170115771#2 170115771#3 -29024142#2 -29024142#1 -29024142#0"/>
    </vehicle>
    <vehicle id="58" depart="58.00">
        <route edges="143955381#1 143955381#2 143955381#3 143955381#4 143955381#5 143955381#6 170115770#0 -29288480#3 29047128 24375222#3 24375222#4 24375222#5 13847053#0 13847053#1 619526004#0 -29023952 -23747533#0 170115771#0 170115771#1 170115771#2 170115771#3"/>
    </vehicle>
    <vehicle id="60" depart="60.00">
        <route edges="143955381#1 143955381#2 143955381#3 143955381#4 143955381#5 143955381#6 170115770#0 170115770#1 170115770#2 170115770#3"/>
    </vehicle>
    <vehicle id="61" depart="61.00">
        <route edges="24375222#0 24375222#1 24375222#2 24375222#3 24375222#4 24375222#5 13847053#0 13847053#1 13847053#2"/>
    </vehicle>
    <vehicle id="63" depart="63.00">
        <route edges="384311993#0 384311993#1 384311993#2 384311993#3 143957229#0 143957229#1 143957229#2"/>
    </vehicle>
    <vehicle id="65" depart="65.00">
        <route edges="29024142#0 29024142#1 29024148 -29024148"/>
    </vehicle>
    <vehicle id="68" depart="68.00">
        <route edges="24375222#0 24375222#1 24375222#2 24375222#3 24375222#4 24375222#5 13847053#0 13847053#1 619526004#0"/>
    </vehicle>
    <vehicle id="69" depart="69.00">
        <route edges="143955381#3 143955381#4 143955381#5 143955381#6 170115770#0 -29288480#3 29047128 24375222#3 24375222#4 24375222#5 13847053#0 13847053#1 619526004#0 -29023952 -23747533#0 170115771#0 170115771#1 170115771#2 170115771#3 -29024142#2"/>
    </vehicle>
    <vehicle id="70" depart="70.00">
        <route edges="143955381#1"/>
    </vehicle>
    <vehicle id="72" depart="72.00">
        <route edges="143955381#1 143955381#2 143955381#3 143955381#4 143955381#5 143955381#6 170115770#0 -29288480#3"/>
    </vehicle>
    <vehicle id="73" depart="73.00">
        <route edges="-29240871 -143955383#0 143955381#3 143957233 143957229#1"/>
    </vehicle>
    <vehicle id="74" depart="74.00">
        <route edges="24375222#0 24375222#1 24375222#2 24375222#3 24375222#4 24375222#5 13847053#0 13847053#1 619526004#0 -29023952 -23747533#0 170115771#0 170115771#1 170115771#2 170115771#3 -29024142#2 29024148 -29024148"/>
    </vehicle>
    <vehicle id="75" depart="75.00">
        <route edges="24375222#0 -239696920 -29288480#0"/>
    </vehicle>
    <vehicle id="78" depart="78.00">
        <route edges="143955381#1 143955381#2 143955381#3 143957233 143957229#1 143957229#2"/>
    </vehicle>
    <vehicle id="79" depart="79.00">
        <route edges="143955381#1 29240869#0 29240869#1 29047361#0 29047361#1"/>
    </vehicle>
    <vehicle id="80" depart="80.00">
        <route edges="24375222#0 24375222#1 24375222#2 24375222#3 24375222#4 24375222#5 13847053#0 13847053#1 619526004#0 -29023952 -23747533#0 170115771#0 170115771#1 170115771#2 170115771#3 -29024142#2 29024148 384311993#1 384311993#2 384311993#3 143957229#0 143957229#1 143957229#2"/>
    </vehicle>
    <vehicle id="81" depart="81.00">
        <route edges="143955381#1 143955381#2 143955381#3 143955381#4 143955381#5 143955381#6 170115770#0 -29288480#3 -29288480#2 -29288480#1 -29288480#0"/>
    </vehicle>
    <vehicle id="82" depart="82.00">
        <route edges="-29240871 -143955383#0 143955381#3 143955381#4 143955381#5 143955381#6 170115770#0 -29288480#3 29047128 24375222#3 24375222#4 24375222#5 13847053#0 13847053#1 13847053#2"/>
    </vehicle>
    <vehicle id="83" depart="83.00">
        <route edges="239696920 24375222#1 24375222#2 24375222#3 24375222#4 24375222#5 13847053#0 13847053#1 619526004#0 -29023952 -23747533#0 170115771#0 170115771#1 170115771#2 170115771#3 -29024142#2 29024148 384311993#1 384311993#2 384311993#3 143957229#0 143957229#1 29047356#0 29047356#1 29047356#2 29047356#3 29240869#3"/>
    </vehicle>
    <vehicle id="84" depart="84.00">
        <route edges="24375222#0 -239696920 239696920"/>
    </vehicle>
    <vehicle id="85" depart="85.00">
        <route edges="24375222#0 24375222#1 24375222#2 24375222#3 24375222#4 24375222#5 13847053#0 13847053#1 619526004#0 -29023952 -23747533#0 170115771#0 170115771#1 170115771#2 170115771#3 -29024142#2 29024148"/>
    </vehicle>
    <vehicle id="86" depart="86.00">
        <route edges="32109003 -32109003 24375222#2 24375222#3 24375222#4 24375222#5 13847053#0 13847053#1 619526004#0 -29023952 -23747533#0 170115771#0 170115771#1 170115771#2 170115771#3 -29024142#2 29024148 384311993#1 384311993#2 384311993#3 143957229#0 143957229#1 29047356#0 29047356#1 29047356#2 29047356#3"/>
    </vehicle>
    <vehicle id="87" depart="87.00">
        <route edges="-29024148 -29024142#1 -29024324"/>
    </vehicle>
    <vehicle id="88" depart="88.00">
        <route edges="29240869#0 32109005 143955383#2 143955383#3"/>
    </vehicle>
    <vehicle id="89" depart="89.00">
        <route edges="143955381#1 143955381#2 143955381#3 143957233 143957229#1 143957229#2"/>
    </vehicle>
    <vehicle id="90" depart="90.00">
        <route edges="143955381#0 143955381#1 143955381#2 143955381#3 143955381#4 143955381#5 143955381#6 170115770#0 -29288480#3 -29288480#2 -29288480#1 239696920 -239696920"/>
    </vehicle>
    <vehicle id="91" depart="91.00">
        <route edges="239696920 24375222#1 24375222#2 24375222#3 24375222#4 24375222#5 13847053#0 13847053#1 619526004#0 -29023952 -23747533#0 170115771#0 170115771#1 170115771#2 170115771#3 -29024142#2 29024148 384311993#1 384311993#2 384311993#3 143957229#0 143957229#1 143957229#2"/>
    </vehicle>
    <vehicle id="93" depart="93.00">
        <route edges="24375222#0 24375222#1 24375222#2 24375222#3 24375222#4 24375222#5 13847053#0 13847053#1 13847053#2"/>
    </vehicle>
    <vehicle id="94" depart="94.00">
        <route edges="170115771#3 -29024142#2 -29024142#1"/>
    </vehicle>
    <vehicle id="96" depart="96.00">
        <route edges="143955381#1 143955381#2 143955383#0 143955383#1"/>
    </vehicle>
    <vehicle id="99" depart="99.00">
        <route edges="384311993#0 384311993#1 384311993#2 384311993#3 143957229#0 143957229#1 29047356#0 29047356#1 29047356#2 -143955383#3 -143955383#2 -143955383#1 -143955383#0 143955381#3 143955381#4 143955381#5 143955381#6 170115770#0 -29288480#3 -29288480#2 -29288480#1 -29288480#0"/>
    </vehicle>
    <vehicle id="100" depart="100.00">
        <route edges="-591494101 -143955383#2 -32109005 29240869#1"/>
    </vehicle>
    <vehicle id="101" depart="101.00">
        <route edges="143955381#1 29240869#0 29240869#1 29240869#2 -29047356#3"/>
    </vehicle>
    <vehicle id="102" depart="102.00">
        <route edges="29047356#0 29047356#1 29047356#2 -143955383#3 -143955383#2 -143955383#1 -143955383#0 143955381#3 143955381#4 143955381#5 143955381#6 170115770#0 -29288480#3 -29288480#2 -32109003 24375222#2 -29047128"/>
    </vehicle>
    <vehicle id="103" depart="103.00">
        <route edges="-23747533#2 -23747533#1 -23747533#0 170115771#0 170115771#1 170115771#2 170115771#3 -29024142#2 29024148 384311993#1 384311993#2 384311993#3 143957229#0 143957229#1 29047356#0 29047356#1 29047356#2 29047356#3"/>
    </vehicle>
    <vehicle id="105" depart="105.00">
        <route edges="-29024148 29024142#2 -29024142#2 29024148 384311993#1 384311993#2 384311993#3 143957229#0 143957229#1 29047356#0 29047356#1 29047356#2 29047356#3 -29240869#2 -29240869#1 -29240869#0 143955381#2"/>
    </vehicle>
    <vehicle id="106" depart="106.00">
        <route edges="29288480#0 29288480#1 -29288480#1"/>
    </vehicle>
    <vehicle id="107" depart="107.00">
        <route edges="-29047361#1 -29047361#0 29240869#2 -29047356#3 -29047356#2 -29047356#1 -29047356#0 143957229#2"/>
    </vehicle>
    <vehicle id="108" depart="108.00">
        <route edges="-29047356#3 -143955383#3 -143955383#2 -143955383#1 -143955383#0 143955381#3 143955381#4 143955381#5 143955381#6 170115770#0 -29288480#3 29047128 24375222#3 24375222#4 24375222#5 13847053#0 13847053#1 619526004#0 -29023952 -23747533#0 170115771#0 170115771#1 170115771#2 170115771#3 -29024142#2 29024148 -29024148"/>
    </vehicle>
    <vehicle id="109" depart="109.00">
        <route edges="-23747533#2 -23747533#1 29023952 -619526004#0"/>
    </vehicle>
    <vehicle id="110" depart="110.00">
        <route edges="29047356#3 -29240869#2 -29240869#1 -29240869#0 143955381#2 143955381#3 143955381#4 143955381#5 143955381#6 170115770#0 -29288480#3 -29288480#2 -29288480#1 -29288480#0"/>
    </vehicle>
    <vehicle id="111" depart="111.00">
        <route edges="143955381#1 143955381#2 143955381#3 143955381#4 143955381#5 143955381#6 170115770#0 -29288480#3 -29288480#2 -29288480#1 239696920 24375222#1"/>
    </vehicle>
    <vehicle id="112" depart="112.00">
        <route edges="143955381#1 143955381#2 143955381#3 143955381#4 143955381#5 143955381#6 170115770#0 -29288480#3 29047128 24375222#3 24375222#4 24375222#5 13847053#0 13847053#1 13847053#2"/>
    </vehicle>
    <vehicle id="113" depart="113.00">
        <route edges="-29047356#3 29047356#3 -29240869#2 29047361#0 29047361#1"/>
    </vehicle>
    <vehicle id="114" depart="114.00">
        <route edges="-239696920 239696920 24375222#1 24375222#2 24375222#3 24375222#4 24375222#5 13847053#0 13847053#1 619526004#0 -29023952 -23747533#0 170115771#0 170115771#1 170115771#2 170115771#3 -29024142#2 29024148 384311993#1 384311993#2 384311993#3 143957229#0 143957229#1 143957229#2"/>
    </vehicle>
    <vehicle id="115" depart="115.00">
        <route edges="143955381#1 143955381#2 143955381#3 143955381#4 143955381#5 143955381#6 170115770#0 -29288480#3 29047128 24375222#3 24375222#4 24375222#5 13847053#0 13847053#1 619526004#0 -619526004#0"/>
    </vehicle>
    <vehicle id="116" depart="116.00">
        <route edges="143955381#1"/>
    </vehicle>
    <vehicle id="117" depart="117.00">
        <route edges="24375222#0 24375222#1 24375222#2 24375222#3 24375222#4 24375222#5 13847053#0 13847053#1 619526004#0 -29023952 -23747533#0 170115771#0"/>
    </vehicle>
    <vehicle id="118" depart="118.00">
        <route edges="-619526004#0 619526004#0 -29023952 -23747533#0 170115771#0 170115771#1 170115771#2 170115771#3 -29024142#2 29024148 384311993#1 384311993#2 384311993#3 143957229#0 143957229#1 29047356#0 29047356#1 29047356#2 29047356#3 -29240869#2 29047361#0 29047361#1"/>
    </vehicle>
    <vehicle id="119" depart="119.00">
        <route edges="29047356#3 -29240869#2 -29240869#1 -29240869#0 143955381#2 143955381#3 143955381#4 143955381#5 143955381#6 170115770#0 -29288480#3 29047128 24375222#3 24375222#4 24375222#5 13847053#0 13847053#1 619526004#0 -29023952"/>
    </vehicle>
    <vehicle id="120" depart="120.00">
        <route edges="384311993#0 384311993#1 384311993#2 384311993#3 143957229#0 143957229#1 29047356#0 29047356#1 29047356#2 -143955383#3 -143955383#2 -143955383#1 -143955383#0 143955381#3 143955381#4 143955381#5 143955381#6 170115770#0 -29288480#3 29047128 24375222#3 24375222#4 24375222#5 13847053#0 13847053#1 13847053#2"/>
    </vehicle>
    <vehicle id="121" depart="121.00">
        <route edges="143955381#1 143955381#2 143955381#3 143957233 143957229#1 143957229#2"/>
    </vehicle>
    <vehicle id="122" depart="122.00">
        <route edges="24375222#0 24375222#1 24375222#2 24375222#3 24375222#4 24375222#5 13847053#0 13847053#1 619526004#0 -29023952 -23747533#0 170115771#0 170115771#1 170115771#2 170115771#3 -29024142#2"/>
    </vehicle>
    <vehicle id="123" depart="123.00">
        <route edges="24375222#0 24375222#1 24375222#2 24375222#3 24375222#4 24375222#5 13847053#0 13847053#1 619526004#0 -29023952 -23747533#0 170115771#0 170115771#1 170115771#2 170115771#3 -29024142#2 29024148 384311993#1 384311993#2 384311993#3 143957229#0 143957229#1 29047356#0 29047356#1"/>
    </vehicle>
    <vehicle id="125" depart="125.00">
        <route edges="143957229#0 143957229#1 29047356#0 29047356#1 29047356#2 -143955383#3"/>
    </vehicle>
    <vehicle id="126" depart="126.00">
        <route edges="143955381#1 143955381#2 143955381#3 143955381#4 143955381#5 143955381#6 170115770#0 -29288480#3 29047128 24375222#3 24375222#4 24375222#5 13847053#0 13847053#1 619526004#0 -29023952 -23747533#0 170115771#0 170115771#1 170115771#2 170115771#3 -29024142#2"/>
    </vehicle>
    <vehicle id="127" depart="127.00">
        <route edges="-143955383#0 143955381#3 143955381#4 143955381#5 143955381#6 170115770#0 -29288480#3 29047128 24375222#3 24375222#4 24375222#5 13847053#0 13847053#1 619526004#0 -29023952 -23747533#0 170115771#0 170115771#1 170115771#2 170115771#3"/>
    </vehicle>
    <vehicle id="129" depart="129.00">
        <route edges="143957229#1 143957229#2"/>
    </vehicle>
    <vehicle id="130" depart="130.00">
        <route edges="143955381#1"/>
    </vehicle>
    <vehicle id="131" depart="131.00">
        <route edges="24375222#0 -239696920 -29288480#0"/>
    </vehicle>
    <vehicle id="132" depart="132.00">
        <route edges="143955381#1 143955381#2 143955381#3 143955381#4 143955381#5 143955381#6 170115770#0 -29288480#3 29047128 24375222#3 24375222#4 24375222#5 13847053#0 13847053#1 619526004#0 -619526004#0"/>
    </vehicle>
    <vehicle id="133" depart="133.00">
        <route edges="-23747533#2 -23747533#1 -23747533#0 170115771#0 170115771#1 170115771#2 170115771#3 -29024142#2 29024148 384311993#1 384311993#2 384311993#3 143957229#0 143957229#1"/>
    </vehicle>
    <vehicle id="134" depart="134.00">
        <route edges="29288480#1 -32109003 24375222#2 24375222#3 24375222#4 24375222#5 13847053#0 13847053#1 13847053#2"/>
    </vehicle>
    <vehicle id="135" depart="135.00">
        <route edges="-619526004#1 -29023952 -23747533#0 170115771#0 170115771#1 170115771#2 170115771#3 -29024142#2 -29024142#1 -29024324"/>
    </vehicle>
    <vehicle id="136" depart="136.00">
        <route edges="-29024148 29024142#2 -29024142#2 29024148 384311993#1 384311993#2 384311993#3 143957229#0 143957229#1 29047356#0 29047356#1 29047356#2 -143955383#3 -143955383#2 -143955383#1 -143955383#0 143955381#3 143955381#4 143955381#5 143955381#6 170115770#0 -29288480#3 -29288480#2 -29288480#1 239696920 -239696920"/>
    </vehicle>
    <vehicle id="137" depart="137.00">
        <route edges="-32109005 -29240869#0 143955381#2 143955381#3 143957233 143957229#1"/>
    </vehicle>
    <vehicle id="138" depart="138.00">
        <route edges="143955383#0 143955383#1 143955383#2 143955383#3 -29047356#2 116269371"/>
    </vehicle>
    <vehicle id="139" depart="139.00">
        <route edges="29288480#0 239696920 24375222#1 24375222#2 24375222#3 24375222#4 24375222#5 13847053#0 13847053#1 619526004#0 -29023952 -23747533#0 170115771#0 170115771#1 170115771#2 170115771#3 -29024142#2 29024148 384311993#1 384311993#2 384311993#3 143957229#0 143957229#1 29047356#0 29047356#1 29047356#2 -143955383#3 -143955383#2 -32109005 29240869#1 29240869#2 -29047356#3"/>
    </vehicle>
    <vehicle id="140" depart="140.00">
        <route edges="29288480#0 29288480#1 -29288480#1"/>
    </vehicle>
    <vehicle id="141" depart="141.00">
        <route edges="24375222#1 24375222#2 24375222#3 24375222#4 24375222#5 13847053#0 13847053#1 619526004#0 -29023952 -23747533#0 170115771#0 170115771#1 170115771#2 170115771#3 -29024142#2 29024148 384311993#1 384311993#2 384311993#3 143957229#0 143957229#1 29047356#0 29047356#1 29047356#2 29047356#3 -29240869#2 29047361#0 29047361#1"/>
    </vehicle>
    <vehicle id="143" depart="143.00">
        <route edges="29047361#0 29047390 -29047390 -29047361#0 -29240869#1 -29240869#0 143955381#2 143955381#3 143955381#4 143955381#5 143955381#6 170115770#0 -29288480#3 -29288480#2 -29288480#1 239696920"/>
    </vehicle>
    <vehicle id="144" depart="144.00">
        <route edges="143955381#1 143955381#2 143955381#3 143955381#4 143955381#5 143955381#6 170115770#0 -29288480#3 -29288480#2 -29288480#1 239696920"/>
    </vehicle>
    <vehicle id="146" depart="146.00">
        <route edges="143955381#1 143955381#2 143955383#0 143955383#1 -32109005"/>
    </vehicle>
    <vehicle id="147" depart="147.00">
        <route edges="24375222#0 24375222#1 24375222#2 24375222#3 24375222#4 24375222#5 13847053#0 13847053#1 619526004#0 -29023952 -23747533#0 170115771#0 170115771#1 170115771#2 170115771#3 -29024142#2 29024148 384311993#1 384311993#2 384311993#3 143957229#0 143957229#1 29047356#0 29047356#1 29047356#2 -143955383#3 -143955383#2 -32109005"/>
    </vehicle>
    <vehicle id="149" depart="149.00">
        <route edges="24375222#0 24375222#1 24375222#2 24375222#3 24375222#4 24375222#5 13847053#0 13847053#1 619526004#0 -29023952"/>
    </vehicle>
    <vehicle id="150" depart="150.00">
        <route edges="-23747533#2 -23747533#1 -23747533#0 170115771#0 170115771#1 170115771#2 170115771#3 -29024142#2 29024148 384311993#1 384311993#2 384311993#3 143957229#0 143957229#1 29047356#0 29047356#1 29047356#2 -143955383#3 -143955383#2 -143955383#1 -143955383#0 143955381#3 143955381#4 143955381#5 143955381#6 170115770#0 170115770#1 170115770#2 170115770#3"/>
    </vehicle>
    <vehicle id="151" depart="151.00">
        <route edges="-29240869#3 -29047356#3 -29047356#2 -29047356#1 -29047356#0 143957229#2"/>
    </vehicle>
    <vehicle id="152" depart="152.00">
        <route edges="29288480#0 239696920 24375222#1 24375222#2 24375222#3 24375222#4 24375222#5 13847053#0 13847053#1 619526004#0 -29023952 -23747533#0 170115771#0 170115771#1 170115771#2 170115771#3 -29024142#2 29024148 384311993#1 384311993#2 384311993#3 143957229#0 143957229#1 143957229#2"/>
    </vehicle>
    <vehicle id="153" depart="153.00">
        <route edges="24375222#0 24375222#1 24375222#2 24375222#3 24375222#4 24375222#5 13847053#0 13847053#1 619526004#0 -619526004#0"/>
    </vehicle>
    <vehicle id="154" depart="154.00">