<?xml version="1.0" encoding="UTF-8"?>

<!-- generated on 10/21/20 13:08:30 by Eclipse SUMO polyconvert Version 1.6.0
<configuration xmlns:xsi="http://www.w3.org/2001/XMLSchema-instance" xsi:noNamespaceSchemaLocation="http://sumo.dlr.de/xsd/polyconvertConfiguration.xsd">

    <input>
        <net-file value="test.net.xml"/>
        <osm-files value="map.osm"/>
        <type-file value="typemap.xml"/>
    </input>

    <output>
        <output-file value="map.poly.xml"/>
    </output>

    <processing>
        <poi-layer-offset value="5"/>
    </processing>

    <report>
        <xml-validation value="never"/>
    </report>

</configuration>
-->

<additional xmlns:xsi="http://www.w3.org/2001/XMLSchema-instance" xsi:noNamespaceSchemaLocation="http://sumo.dlr.de/xsd/additional_file.xsd">
    <location netOffset="-234903.36,-2631456.49" convBoundary="0.00,0.00,2464.24,2613.52" origBoundary="90.398620,23.772685,90.422798,23.796349" projParameter="+proj=utm +zone=46 +ellps=WGS84 +datum=WGS84 +units=m +no_defs"/>

    <poly id="116269331" type="building" color="255,230,230" fill="1" layer="-1.00" shape="1856.469894,974.783095 1888.355729,972.252530 1887.100200,956.494047 1855.204135,959.024797 1856.469894,974.783095"/>
    <poly id="22650518" type="water" color="181,209,209" fill="1" layer="-4.00" shape="1886.059898,93.472404 1895.014374,118.688219 1914.224578,166.646991 1929.609772,206.740343 1945.904300,245.243474 1966.235445,295.409462 1989.883114,356.342651 2014.419520,417.924648 2039.080975,474.051870 2060.076927,521.546080 2077.386967,582.849432 2073.763925,643.879387 2055.302061,676.874697 2050.439089,708.957898 2049.212263,824.369860 2052.500779,836.400949 2064.388580,839.553893 2092.293681,841.318558 2159.438100,846.725570 2225.451888,849.970202 2250.631548,851.607361 2249.913636,842.965082 2245.733746,836.314019 2244.123268,826.258329 2249.957402,822.916304 2254.686228,827.784221 2263.970005,826.263542 2266.952865,796.209429 2265.873229,756.421223 2269.392790,732.330756 2268.962936,691.256282 2257.016392,680.379828 2266.974592,658.710279 2262.862449,618.168144 2257.981552,570.115055 2266.602504,543.881711 2254.138067,503.934564 2241.660999,498.110213 2237.469226,482.948113 2235.418380,473.354799 2226.563593,468.185019 2219.632871,435.307659 2203.921230,418.736790 2188.139420,382.584687 2153.718648,327.055694 2138.554966,308.657414 2128.541507,293.612185 2123.073253,281.177390 2113.781655,256.466317 2105.031878,241.930091 2096.612682,233.239348 2089.875869,218.910363 2084.321825,205.125089 2074.740741,170.101612 2066.319610,145.031184 2047.579537,90.924093 2035.511413,64.412751 2029.774073,56.260659 2024.202110,51.596508 2013.898794,48.115504 2004.720208,47.595221 1993.321194,52.290768 1981.146114,58.618457 1971.254507,49.732886 1886.059898,93.472404"/>
    <poly id="234407682" type="building" color="255,230,230" fill="1" layer="-1.00" shape="1795.376818,942.093381 1829.275400,940.878120 1829.935454,959.218554 1819.814790,959.580019 1819.917573,962.426324 1796.139703,963.280124 1795.376818,942.093381"/>
    <poly id="234407900" type="building" color="255,230,230" fill="1" layer="-1.00" shape="1795.298579,1013.454361 1835.839724,1012.428526 1834.789799,984.431337 1806.637347,983.635864 1794.911812,983.793821 1795.298579,1013.454361"/>
    <poly id="239696919" type="building" color="255,230,230" fill="1" layer="-1.00" shape="1854.934105,918.955782 1890.908216,918.024301 1891.315919,933.709546 1880.734840,933.990682 1880.829514,937.513160 1872.123964,937.738020 1872.039484,934.215357 1855.342048,934.652109 1854.934105,918.955782"/>
    <poly id="24818505" type="parking" color="184,184,179" fill="1" layer="-1.00" shape="1731.260471,797.105541 1733.273475,833.740566 1663.725780,837.522238 1661.714212,800.975836 1674.389599,800.323953 1705.524088,798.515978 1731.260471,797.105541"/>
    <poly id="24818506" type="building" color="255,230,230" fill="1" layer="-1.00" shape="1702.319850,796.734623 1671.185357,798.542605 1668.661835,750.679307 1796.707096,745.046353 1799.519895,793.137092 1728.056237,795.324181 1702.319850,796.734623"/>
    <poly id="24818506#1" type="shop" color="237,199,255" fill="1" layer="-1.00" shape="1702.319850,796.734623 1671.185357,798.542605 1668.661835,750.679307 1796.707096,745.046353 1799.519895,793.137092 1728.056237,795.324181 1702.319850,796.734623"/>
    <poly id="286597349" type="building" color="255,230,230" fill="1" layer="-1.00" shape="1565.866173,1032.803118 1584.724401,1032.858622 1584.763924,1018.229113 1565.915873,1018.173421 1565.905242,1021.509423 1565.866173,1032.803118"/>
    <poly id="286597349#1" type="tourism" color="207,245,201" fill="1" layer="-2.00" shape="1565.866173,1032.803118 1584.724401,1032.858622 1584.763924,1018.229113 1565.915873,1018.173421 1565.905242,1021.509423 1565.866173,1032.803118"/>
    <poly id="317322737" type="building" color="255,230,230" fill="1" layer="-1.00" shape="1639.691688,908.898305 1639.701520,861.265931 1653.177134,860.876515 1653.243673,877.975458 1703.315552,876.088670 1703.634989,893.637383 1652.569788,895.298449 1652.810624,908.526460 1639.691688,908.898305"/>
    <poly id="35216691" type="building" color="255,230,230" fill="1" layer="-1.00" shape="1989.108556,847.217292 1961.963845,848.010111 1961.292336,825.103958 1988.437091,824.311142 1989.108556,847.217292"/>
    <poly id="366560368" type="amenity" color="237,199,199" fill="1" layer="-1.00" shape="1654.403891,797.174669 1667.079282,796.522780 1665.077396,750.423170 1652.506742,751.228303 1654.403891,797.174669"/>
    <poly id="366560368#1" type="building" color="255,230,230" fill="1" layer="-1.00" shape="1654.403891,797.174669 1667.079282,796.522780 1665.077396,750.423170 1652.506742,751.228303 1654.403891,797.174669"/>
    <poly id="369334960" type="building" color="255,230,230" fill="1" layer="-1.00" shape="1725.459228,925.523172 1725.422247,898.837420 1746.187752,898.891686 1746.166288,906.117801 1755.049619,906.133445 1755.041800,912.428390 1757.224399,912.432998 1757.217228,912.599364 1778.458661,912.467694 1778.507829,920.213395 1756.797424,920.353602 1756.826582,925.317986 1725.459228,925.523172"/>
    <poly id="369336121" type="building" color="255,230,230" fill="1" layer="-1.00" shape="1896.209141,998.629828 1868.057555,1000.682399 1866.946836,985.597306 1895.098451,983.544736 1896.209141,998.629828"/>
    <poly id="369336191" type="building" color="255,230,230" fill="1" layer="-1.00" shape="1926.165898,897.889084 1940.357867,897.076854 1938.860215,870.805595 1924.668221,871.617824 1926.165898,897.889084"/>
    <poly id="369336226" type="building" color="255,230,230" fill="1" layer="-1.00" shape="1955.148197,948.795333 1952.899217,923.269175 1969.629098,921.812368 1971.867853,947.338711 1955.148197,948.795333"/>
    <poly id="369336257" type="building" color="255,230,230" fill="1" layer="-1.00" shape="1976.039256,909.771160 1975.905769,874.387546 1956.529649,874.462835 1956.592449,890.254088 1952.217659,890.278234 1952.287517,906.457242 1958.640791,906.430363 1958.651868,909.843535 1976.039256,909.771160"/>
    <poly id="369336276" type="building" color="255,230,230" fill="1" layer="-1.00" shape="1927.345643,975.089688 1949.638599,974.462591 1949.137143,956.983709 1926.844362,957.621883 1927.345643,975.089688"/>
    <poly id="369336412" type="building" color="255,230,230" fill="1" layer="-1.00" shape="1907.789649,945.644849 1906.832546,911.528506 1919.992241,911.156161 1920.939117,945.272687 1907.789649,945.644849"/>
    <poly id="369339774" type="building" color="255,230,230" fill="1" layer="-1.00" shape="1946.576100,801.577701 1945.663047,791.187949 1920.435315,793.087458 1921.724768,804.545357 1946.576100,801.577701"/>
    <poly id="369343511" type="amenity" color="237,199,199" fill="1" layer="-1.00" shape="1817.101212,701.132572 1816.277272,681.631472 1804.323246,682.137105 1797.209843,682.432766 1797.620314,692.100227 1790.782193,692.390883 1790.371718,682.723422 1783.003630,683.034807 1783.624751,697.552524 1783.827615,702.535910 1817.101212,701.132572"/>
    <poly id="369343511#1" type="building" color="255,230,230" fill="1" layer="-1.00" shape="1817.101212,701.132572 1816.277272,681.631472 1804.323246,682.137105 1797.209843,682.432766 1797.620314,692.100227 1790.782193,692.390883 1790.371718,682.723422 1783.003630,683.034807 1783.624751,697.552524 1783.827615,702.535910 1817.101212,701.132572"/>
    <poly id="369343586" type="building" color="255,230,230" fill="1" layer="-1.00" shape="1853.149816,698.659251 1851.872916,674.999416 1877.559133,673.623425 1878.835990,697.283258 1853.149816,698.659251"/>
    <poly id="369344365" type="building" color="255,230,230" fill="1" layer="-1.00" shape="1868.247311,720.704546 1862.705032,721.027011 1861.781184,705.561720 1861.633080,703.026548 1867.521809,702.686699 1873.563268,702.332993 1896.862896,700.956113 1897.934804,718.956574 1868.247311,720.704546"/>
    <poly id="369350689" type="building" color="255,230,230" fill="1" layer="-1.00" shape="1669.667253,682.094169 1668.997033,658.722498 1685.000909,658.264944 1685.671103,681.636614 1669.667253,682.094169"/>
    <poly id="369350750" type="tourism" color="207,245,201" fill="1" layer="-2.00" shape="1692.622084,695.950460 1691.559940,657.768754 1710.296002,657.250415 1711.358096,695.432117 1692.622084,695.950460"/>
    <poly id="378939466" type="building" color="255,230,230" fill="1" layer="-1.00" shape="1641.182029,921.294551 1667.809113,920.643528 1668.236109,937.935392 1674.158962,937.794316 1674.563252,954.399484 1666.652933,954.609992 1666.834610,961.788084 1643.286774,962.394134 1641.182029,921.294551"/>
    <poly id="380340967" type="amenity" color="237,199,199" fill="1" layer="-1.00" shape="1911.075300,902.563261 1920.929915,902.151292 1919.989708,879.615739 1910.145274,880.027522 1911.075300,902.563261"/>
    <poly id="380340967#1" type="building" color="255,230,230" fill="1" layer="-1.00" shape="1911.075300,902.563261 1920.929915,902.151292 1919.989708,879.615739 1910.145274,880.027522 1911.075300,902.563261"/>
    <poly id="440307346" type="building" color="255,230,230" fill="1" layer="-1.00" shape="1561.925346,959.221148 1582.784566,959.384287 1582.888081,946.028092 1562.039037,945.864765 1561.925346,959.221148"/>
    <poly id="441122388" type="building" color="255,230,230" fill="1" layer="-1.00" shape="1593.490866,1033.740715 1611.912214,1033.327667 1611.575254,1018.184143 1593.153887,1018.597190 1593.264868,1023.571173 1593.490866,1033.740715"/>
    <poly id="441122389" type="building" color="255,230,230" fill="1" layer="-1.00" shape="1585.464539,912.778257 1613.709676,911.931433 1613.059190,890.210668 1584.813809,891.046411 1585.464539,912.778257"/>
    <poly id="441122390" type="building" color="255,230,230" fill="1" layer="-1.00" shape="1691.772386,991.034937 1733.081377,990.726281 1732.944202,971.423233 1691.634954,971.720805 1691.772386,991.034937"/>
    <poly id="445465843" type="building" color="255,230,230" fill="1" layer="-1.00" shape="1771.271783,1013.514808 1787.909060,1013.699658 1788.087923,997.748832 1771.460823,997.563794 1771.271783,1013.514808"/>
    <poly id="445465846" type="building" color="255,230,230" fill="1" layer="-1.00" shape="1617.278298,936.524817 1629.352341,936.460117 1629.318641,928.448147 1627.758358,928.454393 1627.717739,917.261898 1617.213958,917.309087 1617.278298,936.524817"/>
    <poly id="445465869" type="building" color="255,230,230" fill="1" layer="-1.00" shape="1652.528029,740.633135 1671.319825,739.260374 1668.774458,704.762855 1649.982616,706.135616 1652.528029,740.633135"/>
    <poly id="445465877" type="building" color="255,230,230" fill="1" layer="-1.00" shape="1601.527265,938.529414 1615.199143,938.280451 1614.872330,920.332895 1601.200435,920.581856 1601.527265,938.529414"/>
    <poly id="445465919" type="building" color="255,230,230" fill="1" layer="-1.00" shape="1966.962092,1032.008667 1979.722770,1031.011924 1979.457621,1027.647702 1984.967179,1027.215040 1985.242522,1030.579077 1990.599353,1030.160278 1988.397464,1002.172975 1964.749961,1004.021549 1966.962092,1032.008667"/>
    <poly id="445465928" type="building" color="255,230,230" fill="1" layer="-1.00" shape="1671.453057,698.397124 1687.582259,698.103523 1687.379388,686.958319 1671.250174,687.251919 1671.453057,698.397124"/>
    <poly id="445465938" type="building" color="255,230,230" fill="1" layer="-1.00" shape="1590.346670,947.332974 1590.646400,962.111457 1606.754321,961.784873 1606.444210,946.995498 1590.346670,947.332974"/>
    <poly id="445465950" type="building" color="255,230,230" fill="1" layer="-1.00" shape="1913.906096,972.408385 1928.534453,972.042575 1928.100189,954.894940 1913.471612,955.249670 1913.906096,972.408385"/>
    <poly id="445465955" type="building" color="255,230,230" fill="1" layer="-1.00" shape="1699.684088,1034.599919 1736.657254,1034.780240 1736.747639,1018.454216 1699.774230,1018.262811 1699.684088,1034.599919"/>
    <poly id="445465963" type="building" color="255,230,230" fill="1" layer="-1.00" shape="1918.606391,996.449247 1944.404094,994.506081 1943.410479,981.369362 1917.612752,983.312527 1918.606391,996.449247"/>
    <poly id="445465965" type="building" color="255,230,230" fill="1" layer="-1.00" shape="1619.017676,1033.165028 1638.827790,1032.848632 1638.606436,1017.891407 1618.786105,1018.207988 1619.017676,1033.165028"/>
    <poly id="445465968" type="building" color="255,230,230" fill="1" layer="-1.00" shape="1644.562486,1030.217423 1672.731560,1030.247584 1672.761033,1012.260298 1644.581729,1012.230320 1644.562486,1030.217423"/>
    <poly id="445465973" type="building" color="255,230,230" fill="1" layer="-1.00" shape="2000.751579,880.097574 2020.541788,879.239048 2019.998732,866.759083 2000.198512,867.628872 2000.751579,880.097574"/>
    <poly id="445465987" type="building" color="255,230,230" fill="1" layer="-1.00" shape="1688.156942,961.621553 1705.090580,960.714844 1703.021595,922.130327 1686.087710,923.025955 1688.156942,961.621553"/>
    <poly id="445466005" type="building" color="255,230,230" fill="1" layer="-1.00" shape="1942.120266,1031.551702 1953.795298,1030.862824 1952.070941,1001.658854 1940.385488,1002.336838 1942.120266,1031.551702"/>
    <poly id="445466009" type="building" color="255,230,230" fill="1" layer="-1.00" shape="1592.518819,1012.845900 1611.701500,1012.795792 1611.663944,997.292179 1592.481242,997.342286 1592.518819,1012.845900"/>
    <poly id="445466013" type="building" color="255,230,230" fill="1" layer="-1.00" shape="1563.201897,977.794194 1580.979405,977.304181 1580.547635,961.996146 1562.780506,962.497051 1563.201897,977.794194"/>
    <poly id="445466023" type="building" color="255,230,230" fill="1" layer="-1.00" shape="1614.018332,959.125806 1631.248339,958.812064 1631.030474,946.847027 1613.800454,947.160768 1614.018332,959.125806"/>
    <poly id="445466032" type="building" color="255,230,230" fill="1" layer="-1.00" shape="1898.507821,998.288790 1914.173043,997.737866 1913.575635,980.593197 1897.900199,981.144305 1898.507821,998.288790"/>
    <poly id="445466037" type="building" color="255,230,230" fill="1" layer="-1.00" shape="1935.310156,994.682559 1946.395104,994.070905 1945.561552,979.080516 1934.476592,979.692170 1935.310156,994.682559"/>
    <poly id="445466058" type="building" color="255,230,230" fill="1" layer="-1.00" shape="2000.403395,900.772540 2018.099792,900.306715 2017.785460,888.066404 2000.089048,888.532228 2000.403395,900.772540"/>
    <poly id="445466074" type="building" color="255,230,230" fill="1" layer="-1.00" shape="1762.600565,692.826109 1776.484951,692.473715 1775.931139,671.006112 1769.906427,671.160070 1769.534219,656.870553 1761.674517,657.068987 1762.600565,692.826109"/>
    <poly id="445466077" type="building" color="255,230,230" fill="1" layer="-1.00" shape="1591.869827,980.009441 1609.144425,979.905424 1609.061745,964.724023 1602.341651,964.768821 1591.787128,964.828039 1591.869827,980.009441"/>
    <poly id="445466095" type="building" color="255,230,230" fill="1" layer="-1.00" shape="1592.762201,994.289505 1606.709299,994.035516 1606.535997,984.518878 1592.588890,984.772867 1592.762201,994.289505"/>
    <poly id="445466097" type="building" color="255,230,230" fill="1" layer="-1.00" shape="1908.721740,1024.922378 1918.564866,1024.444113 1917.648021,1005.997532 1907.794888,1006.487061 1908.721740,1024.922378"/>
    <poly id="445466102" type="building" color="255,230,230" fill="1" layer="-1.00" shape="1564.964475,997.854514 1584.111147,997.505802 1583.804060,980.643958 1564.657366,980.992668 1564.964475,997.854514"/>
    <poly id="445466107" type="building" color="255,230,230" fill="1" layer="-1.00" shape="1614.636221,996.417955 1633.237389,996.356303 1633.190159,981.440237 1614.588972,981.501888 1614.636221,996.417955"/>
    <poly id="445466110" type="building" color="255,230,230" fill="1" layer="-1.00" shape="1566.118216,1012.484456 1584.173669,1012.698655 1584.345519,999.174978 1566.290048,998.960777 1566.118216,1012.484456"/>
    <poly id="445466115" type="building" color="255,230,230" fill="1" layer="-1.00" shape="1553.179734,812.217026 1590.097194,811.544706 1589.839768,797.408236 1552.922271,798.080552 1553.179734,812.217026"/>
    <poly id="445466134" type="building" color="255,230,230" fill="1" layer="-1.00" shape="1744.306764,989.424807 1760.980821,989.387312 1760.935590,972.332321 1744.271709,972.369629 1744.306764,989.424807"/>
    <poly id="445466159" type="building" color="255,230,230" fill="1" layer="-1.00" shape="1616.440100,978.985719 1633.675126,978.948946 1633.644565,963.267891 1616.409521,963.304662 1616.440100,978.985719"/>
    <poly id="445466176" type="building" color="255,230,230" fill="1" layer="-1.00" shape="1642.062786,972.468166 1642.037799,989.579863 1684.719829,989.622872 1684.734671,972.511366 1642.062786,972.468166"/>
    <poly id="445466187" type="building" color="255,230,230" fill="1" layer="-1.00" shape="1865.999410,1021.532573 1898.350658,1019.924472 1898.076576,1014.388263 1902.600631,1014.161898 1902.263199,1007.385614 1865.387867,1009.220079 1865.999410,1021.532573"/>
    <poly id="445466191" type="building" color="255,230,230" fill="1" layer="-1.00" shape="1927.636881,1033.156095 1938.806586,1032.720209 1937.643136,1003.517118 1926.473409,1003.953004 1927.636881,1033.156095"/>
    <poly id="445466204" type="building" color="255,230,230" fill="1" layer="-1.00" shape="1617.568601,1012.954929 1633.972729,1012.656223 1633.720770,998.818879 1617.316626,999.117584 1617.568601,1012.954929"/>
    <poly id="445466227" type="building" color="255,230,230" fill="1" layer="-1.00" shape="1747.358594,1034.385978 1765.730359,1034.051605 1765.408760,1016.381029 1747.036972,1016.715400 1747.358594,1034.385978"/>
    <poly id="479223322" type="water" color="181,209,209" fill="1" layer="-4.00" shape="2197.955358,1409.497481 2195.573806,1374.409651 2185.196456,1339.866094 2154.681345,1294.883218 2138.609266,1280.324957 2126.566357,1262.446337 2116.362125,1243.049265 2101.270386,1221.834873 2095.430082,1191.165285 2094.066572,1170.576854 2084.843324,1129.972462 2080.950963,1115.015519 2076.972954,1096.469444 2074.955035,1087.008532 2072.902675,1075.653160 2069.852602,1068.881865 2067.720390,1059.866326 2068.298308,1052.386299 2068.829830,1041.792969 2066.560419,1030.840508 2057.231220,1019.196294 2052.319749,991.380161 2048.157674,986.834476 2044.607995,935.753846 2043.198479,890.197662 2043.730885,880.213846 2045.845057,875.332415 2049.752748,871.493369 2063.067739,870.686123 2134.648887,876.677299 2243.603105,884.084434 2255.066632,887.466881 2252.579892,904.966764 2259.839814,952.045728 2259.276412,989.525413 2263.716362,1021.162467 2272.480186,1050.537755 2274.761964,1085.760368 2284.446007,1125.935323 2277.742137,1133.604184 2275.966478,1145.893527 2293.865150,1172.864248 2310.419833,1211.750764 2323.157687,1265.656713 2329.561164,1294.232627 2334.534174,1319.853369 2328.715670,1328.536794 2332.532362,1361.803200 2341.213489,1377.094330 2344.589825,1400.716002 2340.156458,1417.719283 2349.078142,1445.695344 2358.271705,1475.727787 2360.176935,1485.733799 2367.661951,1529.506150 2376.247572,1576.605386 2395.294033,1632.557843 2411.097283,1669.973019 2422.975224,1713.621276 2427.874989,1735.220465 2435.968392,1792.291688 2437.942050,1822.355522 2443.013861,1850.623166 2448.444188,1888.525948 2449.752658,1910.600402 2457.147025,1946.029403 2456.022729,1981.269543 2451.015077,2027.850963 2448.066036,2049.648102 2444.092670,2070.632669 2439.435086,2091.563172 2434.979462,2111.259868 2429.320991,2139.966207 2422.768630,2185.146095 2414.928966,2232.998059 2399.531669,2284.710999 2367.568864,2347.951367 2362.210705,2363.985163 2357.974767,2400.811262 2339.873348,2422.096931 2308.076804,2451.245098 2264.776385,2499.963361 2205.093720,2561.846278 2193.294870,2578.651133 2162.184187,2613.516822 2109.602407,2588.640037 2103.854016,2596.092218 2073.263267,2583.848482 2077.233678,2575.076578 2057.060251,2565.391816 2110.295572,2522.465543 2145.921008,2489.124601 2161.605039,2473.434880 2181.265750,2447.067032 2206.126040,2416.703692 2223.571649,2380.668025 2270.546007,2314.694131 2287.440142,2271.864024 2305.615522,2241.733230 2315.022252,2233.560824 2324.557497,2233.021843 2335.279254,2225.944876 2361.200042,2166.349503 2367.266094,2129.213117 2373.247809,2090.238600 2386.182057,2053.376434 2387.161502,2044.980377 2379.121444,2030.154152 2369.441551,1985.125033 2356.299380,1928.023625 2334.842086,1825.247705 2323.555464,1765.885043 2307.621482,1696.023157 2294.184931,1631.158381 2280.067619,1591.695674 2271.789588,1581.750041 2260.407811,1559.825357 2244.974236,1514.158295 2214.656222,1504.125555 2207.022216,1438.712072 2197.955358,1409.497481"/>
    <poly id="490290676" type="building" color="255,230,230" fill="1" layer="-1.00" shape="2023.861557,737.036148 2037.936897,735.971257 2037.856995,734.942049 2046.463247,734.297978 2045.350792,719.667304 2034.717860,720.470124 2034.784747,721.344415 2022.726070,722.261822 2023.861557,737.036148"/>
    <poly id="490290677" type="building" color="255,230,230" fill="1" layer="-1.00" shape="2022.161468,720.377000 2045.847649,717.264480 2044.308650,697.122539 2020.197498,699.300782 2022.161468,720.377000"/>
    <poly id="496262716" type="building" color="255,230,230" fill="1" layer="-1.00" shape="1869.736139,798.065777 1899.059822,794.828286 1895.942007,766.957383 1880.478223,767.382728 1872.740812,768.133003 1867.213164,775.426024 1869.736139,798.065777"/>
    <poly id="497980475" type="building" color="255,230,230" fill="1" layer="-1.00" shape="1591.636130,981.177351 1591.474015,981.235715 1591.636130,981.177351"/>
    <poly id="498180084" type="building" color="255,230,230" fill="1" layer="-1.00" shape="1953.612130,740.385832 1970.368703,738.141716 1969.533227,732.017270 1952.786842,734.261201 1953.612130,740.385832"/>
    <poly id="498180085" type="building" color="255,230,230" fill="1" layer="-1.00" shape="1964.308722,727.380094 1983.249144,725.207108 1981.592921,710.963119 1962.652481,713.136106 1964.308722,727.380094"/>
    <poly id="498180087" type="building" color="255,230,230" fill="1" layer="-1.00" shape="1938.266694,731.056465 1960.186106,728.374896 1958.189750,712.253088 1936.270515,714.945736 1938.266694,731.056465"/>
    <poly id="498180088" type="building" color="255,230,230" fill="1" layer="-1.00" shape="1938.002461,756.905384 1925.835731,756.927166 1926.605009,776.794971 1918.375203,777.387941 1919.215255,788.809683 1940.360091,787.283647 1938.002461,756.905384"/>
    <poly id="498180115" type="building" color="255,230,230" fill="1" layer="-1.00" shape="1908.404893,704.713684 1932.617146,703.608405 1932.128265,692.989291 1929.266613,692.099330 1929.067795,682.849157 1928.295002,679.050872 1926.769718,676.496416 1922.106013,669.610412 1911.877231,670.206485 1912.331026,680.017223 1907.276703,680.253217 1908.404893,704.713684"/>
    <poly id="498180117" type="building" color="255,230,230" fill="1" layer="-1.00" shape="1951.492689,711.887244 1971.141730,710.543619 1970.158797,696.309554 1950.499541,697.653364 1951.492689,711.887244"/>
    <poly id="498180119" type="building" color="255,230,230" fill="1" layer="-1.00" shape="1931.266090,690.444941 1967.304512,687.972093 1966.114859,670.782791 1954.818378,671.553402 1954.597232,668.365698 1940.224543,669.347411 1939.865780,664.200629 1929.496475,664.921151 1931.266090,690.444941"/>
    <poly id="498180122" type="building" color="255,230,230" fill="1" layer="-1.00" shape="1987.524282,695.018558 2014.116202,691.853159 2009.803669,656.035750 1983.221877,659.200966 1987.524282,695.018558"/>
    <poly id="498180124" type="building" color="255,230,230" fill="1" layer="-1.00" shape="2023.714361,693.595919 2037.992368,691.895653 2035.758685,673.373284 2021.490854,675.073365 2023.714361,693.595919"/>
    <poly id="498180125" type="building" color="255,230,230" fill="1" layer="-1.00" shape="1980.764293,797.764289 1979.730768,779.064944 1976.602803,779.232644 1975.254046,754.975677 1949.528009,756.396564 1950.422266,772.483001 1956.341753,772.153709 1957.840244,799.034480 1980.764293,797.764289"/>
    <poly id="498180126" type="building" color="255,230,230" fill="1" layer="-1.00" shape="2003.825407,787.204611 2003.440853,771.663028 1999.883069,771.749878 1999.804264,768.537422 1991.485841,768.744078 1991.448452,767.248637 1981.988146,767.476060 1982.403264,784.136409 1996.766726,783.775506 1996.852582,787.375717 2003.825407,787.204611"/>
    <poly id="498180127" type="building" color="255,230,230" fill="1" layer="-1.00" shape="2013.165784,791.600731 2024.379473,791.330368 2024.322148,788.738134 2036.728696,788.446094 2036.330205,771.574883 2029.071702,771.740085 2028.999348,768.882148 2036.257853,768.716946 2035.935340,754.903090 2012.314843,755.454410 2013.165784,791.600731"/>
    <poly id="498180128" type="building" color="255,230,230" fill="1" layer="-1.00" shape="1954.653732,817.854897 1981.327982,817.547168 1981.150530,802.179135 1954.476453,802.497940 1954.653732,817.854897"/>
    <poly id="498180129" type="building" color="255,230,230" fill="1" layer="-1.00" shape="2035.264147,815.037169 2035.078419,798.649714 2028.226334,798.729953 2028.247233,801.001460 2018.407507,801.113853 2018.521970,810.775604 2026.760617,810.670152 2026.811200,815.135430 2035.264147,815.037169"/>
    <poly id="498180130" type="building" color="255,230,230" fill="1" layer="-1.00" shape="2015.165652,842.698455 2039.882142,842.415341 2039.787629,833.850383 2032.588920,833.936923 2032.461699,823.012014 2021.571868,823.143498 2021.445647,812.273982 2014.817866,812.350150 2015.165652,842.698455"/>
    <poly id="498180131" type="building" color="255,230,230" fill="1" layer="-1.00" shape="1991.860064,842.612405 2004.646864,841.360334 2000.447535,798.869274 1987.660496,800.110266 1991.860064,842.612405"/>
    <poly id="498180132" type="building" color="255,230,230" fill="1" layer="-1.00" shape="1946.806941,847.920025 1946.021895,821.015195 1910.885788,822.053177 1911.670699,848.946932 1946.806941,847.920025"/>
    <poly id="498180133" type="building" color="255,230,230" fill="1" layer="-1.00" shape="2001.579651,916.665449 2021.399264,916.305091 2021.158160,903.043870 2001.338529,903.404226 2001.579651,916.665449"/>
    <poly id="498180134" type="building" color="255,230,230" fill="1" layer="-1.00" shape="2007.731442,931.359652 2027.698602,931.262595 2027.638956,919.006571 2007.671578,919.092548 2007.731442,931.359652"/>
    <poly id="498180135" type="building" color="255,230,230" fill="1" layer="-1.00" shape="2009.547810,948.803537 2026.893682,948.133524 2026.514942,938.520907 2021.541469,938.711072 2021.376393,934.680088 2009.003979,935.159935 2009.547810,948.803537"/>
    <poly id="498180136" type="building" color="255,230,230" fill="1" layer="-1.00" shape="2014.681098,965.256194 2029.758044,964.882331 2029.445452,952.176528 2014.368493,952.550390 2014.681098,965.256194"/>
    <poly id="498180137" type="building" color="255,230,230" fill="1" layer="-1.00" shape="1980.313726,942.929492 1997.994518,942.729897 1997.704797,917.821977 1980.023975,918.021569 1980.313726,942.929492"/>
    <poly id="498180138" type="building" color="255,230,230" fill="1" layer="-1.00" shape="1961.197862,974.695667 2005.651472,972.335778 2005.003097,960.234527 1999.827136,960.505959 1999.210026,949.002587 1993.748795,949.290290 1994.031019,954.715525 1988.997790,954.984365 1989.291420,960.475886 1972.704037,961.353800 1972.441267,956.438001 1966.908873,956.738091 1966.585577,950.737319 1956.519114,951.275020 1957.138072,962.878101 1960.561458,962.693937 1961.197862,974.695667"/>
    <poly id="498180138#1" type="tourism" color="207,245,201" fill="1" layer="-2.00" shape="1961.197862,974.695667 2005.651472,972.335778 2005.003097,960.234527 1999.827136,960.505959 1999.210026,949.002587 1993.748795,949.290290 1994.031019,954.715525 1988.997790,954.984365 1989.291420,960.475886 1972.704037,961.353800 1972.441267,956.438001 1966.908873,956.738091 1966.585577,950.737319 1956.519114,951.275020 1957.138072,962.878101 1960.561458,962.693937 1961.197862,974.695667"/>
    <poly id="498180139" type="building" color="255,230,230" fill="1" layer="-1.00" shape="1957.410576,999.733152 1971.423886,998.636048 1970.244930,983.718437 1956.231606,984.815540 1957.410576,999.733152"/>
    <poly id="498180140" type="building" color="255,230,230" fill="1" layer="-1.00" shape="1975.561453,997.906946 2004.280544,995.655867 2003.340937,983.803723 1974.631816,986.043538 1975.561453,997.906946"/>
    <poly id="498180141" type="building" color="255,230,230" fill="1" layer="-1.00" shape="2011.300832,992.491647 2028.603778,991.146386 2027.595691,978.331321 2010.292729,979.676582 2011.300832,992.491647"/>