<?xml version="1.0" encoding="UTF-8"?>

<!-- generated on 09/13/20 07:36:20 by Eclipse SUMO polyconvert Version 1.6.0
<configuration xmlns:xsi="http://www.w3.org/2001/XMLSchema-instance" xsi:noNamespaceSchemaLocation="http://sumo.dlr.de/xsd/polyconvertConfiguration.xsd">

    <input>
        <net-file value="test.net.xml"/>
        <osm-files value="map.osm"/>
        <type-file value="typemap.xml"/>
    </input>

    <output>
        <output-file value="map.poly.xml"/>
    </output>

    <processing>
        <poi-layer-offset value="5"/>
    </processing>

    <report>
        <xml-validation value="never"/>
    </report>

</configuration>
-->

<additional xmlns:xsi="http://www.w3.org/2001/XMLSchema-instance" xsi:noNamespaceSchemaLocation="http://sumo.dlr.de/xsd/additional_file.xsd">
    <location netOffset="-232932.62,-2629147.96" convBoundary="-61.82,-7679.26,13825.12,11111.90" origBoundary="90.378463,23.684176,90.516711,23.852033" projParameter="+proj=utm +zone=46 +ellps=WGS84 +datum=WGS84 +units=m +no_defs"/>

    <poly id="109697771" type="amenity" color="237,199,199" fill="1" layer="-1.00" shape="1263.909106,2759.065522 1198.727095,2753.025848 1200.216220,2743.589356 1196.730477,2743.719886 1190.701135,2742.522901 1079.308790,2727.192146 1054.044712,2918.599013 1218.506573,2984.721292 1254.857929,2987.599970 1265.713065,2937.805913 1273.835495,2891.929895 1265.220170,2885.981612 1287.573024,2731.389895 1277.761859,2730.306654 1268.093841,2729.242956 1265.550891,2747.387552 1263.909106,2759.065522"/>
    <poly id="109697772" type="commercial" color="209,209,204" fill="1" layer="-3.00" shape="1650.718459,3330.388403 1763.303195,3323.735443 1828.326015,3317.921913 1892.827906,3314.290409 1896.018820,3160.062474 1795.342499,3167.681772 1752.698212,3167.532671 1718.763922,3166.836081 1665.540828,3159.877041 1626.812788,3165.840558 1650.718459,3330.388403"/>
    <poly id="116269308" type="building" color="255,230,230" fill="1" layer="-1.00" shape="3935.876512,3444.280818 3951.815317,3444.201517 3951.669513,3415.434301 3935.730879,3415.524678 3935.876512,3444.280818"/>
    <poly id="116269331" type="building" color="255,230,230" fill="1" layer="-1.00" shape="3827.209894,3283.313095 3859.095729,3280.782530 3857.840200,3265.024047 3825.944135,3267.554797 3827.209894,3283.313095"/>
    <poly id="116269339" type="building" color="255,230,230" fill="1" layer="-1.00" shape="3953.303432,3509.205883 3968.265248,3509.244101 3968.315937,3487.355473 3953.354097,3487.317253 3953.303432,3509.205883"/>
    <poly id="116269370" type="building" color="255,230,230" fill="1" layer="-1.00" shape="3961.706835,3403.205222 3979.422502,3402.129477 3977.553746,3371.709076 3959.838243,3372.795898 3961.706835,3403.205222"/>
    <poly id="116269385" type="building" color="255,230,230" fill="1" layer="-1.00" shape="3996.213978,3544.853359 4011.433170,3544.465807 4010.666334,3514.069700 3995.447110,3514.457249 3996.213978,3544.853359"/>
    <poly id="116269387" type="building" color="255,230,230" fill="1" layer="-1.00" shape="3822.232061,3552.317956 3822.530006,3523.852942 3779.634088,3528.268533 3779.657571,3554.777205 3813.852272,3554.742324 3813.879691,3552.325862 3822.232061,3552.317956"/>
    <poly id="116269396" type="building" color="255,230,230" fill="1" layer="-1.00" shape="3939.359065,3403.611626 3957.984519,3402.652298 3956.540685,3374.850692 3937.915196,3375.810018 3939.359065,3403.611626"/>
    <poly id="116269400" type="building" color="255,230,230" fill="1" layer="-1.00" shape="3971.487688,3514.837516 3937.681677,3514.377322 3937.498013,3527.269477 3971.303794,3527.718590 3971.487688,3514.837516"/>
    <poly id="116269408" type="building" color="255,230,230" fill="1" layer="-1.00" shape="3938.242128,3373.598678 3971.550524,3371.352776 3969.686450,3347.360070 3936.110183,3350.020890 3938.242128,3373.598678"/>
    <poly id="141307558" type="building" color="255,230,230" fill="1" layer="-1.00" shape="3882.864256,3353.427445 3912.157977,3352.495664 3921.758218,3352.121578 3922.186339,3365.567807 3913.339140,3365.850621 3913.511456,3371.399762 3913.491589,3370.868169 3906.978483,3371.075288 3906.886723,3368.273114 3899.099420,3368.514494 3899.333561,3375.780281 3883.585846,3376.277287 3882.864256,3353.427445"/>
    <poly id="142104491" type="building" color="255,230,230" fill="1" layer="-1.00" shape="3697.727527,2577.171650 3743.667204,2571.160307 3740.307420,2545.698692 3694.367661,2551.710038 3697.727527,2577.171650"/>
    <poly id="161528958" type="building" color="255,230,230" fill="1" layer="-1.00" shape="2808.534095,2229.708032 2805.924899,2209.696403 2792.391635,2211.450676 2772.447795,2214.031281 2740.415307,2218.162540 2743.024595,2238.174165 2760.953628,2235.851953 2786.188664,2232.587358 2808.534095,2229.708032"/>
    <poly id="170120212" type="water" color="181,209,209" fill="1" layer="-4.00" shape="2268.771328,2786.859375 2323.865250,2788.998875 2320.232832,2880.906125 2265.139256,2878.766671 2268.771328,2786.859375"/>
    <poly id="189476833" type="amenity" color="237,199,199" fill="1" layer="-1.00" shape="1345.816082,2660.577652 1351.114086,2581.938030 1336.826829,2580.936913 1333.480229,2591.981208 1309.287318,2589.754498 1309.382806,2579.401598 1261.669527,2577.695509 1260.632964,2653.430891 1312.831845,2657.814152 1345.816082,2660.577652"/>
    <poly id="22650518" type="water" color="181,209,209" fill="1" layer="-4.00" shape="3856.799898,2402.002404 3865.754374,2427.218219 3884.964578,2475.176991 3900.349772,2515.270343 3916.644300,2553.773474 3936.975445,2603.939462 3960.623114,2664.872651 3985.159520,2726.454648 4009.820975,2782.581870 4030.816927,2830.076080 4048.126967,2891.379432 4044.503925,2952.409387 4026.042061,2985.404697 4021.179089,3017.487898 4019.952263,3132.899860 4023.240779,3144.930949 4035.128580,3148.083893 4063.033681,3149.848558 4130.178100,3155.255570 4196.191888,3158.500202 4221.371548,3160.137361 4220.653636,3151.495082 4216.473746,3144.844019 4214.863268,3134.788329 4220.697402,3131.446304 4225.426228,3136.314221 4234.710005,3134.793542 4237.692865,3104.739429 4236.613229,3064.951223 4240.132790,3040.860756 4239.702936,2999.786282 4227.756392,2988.909828 4237.714592,2967.240279 4233.602449,2926.698144 4228.721552,2878.645055 4237.342504,2852.411711 4224.878067,2812.464564 4212.400999,2806.640213 4208.209226,2791.478113 4206.158380,2781.884799 4197.303593,2776.715019 4190.372871,2743.837659 4174.661230,2727.266790 4158.879420,2691.114687 4124.458648,2635.585694 4109.294966,2617.187414 4099.281507,2602.142185 4093.813253,2589.707390 4084.521655,2564.996317 4075.771878,2550.460091 4067.352682,2541.769348 4060.615869,2527.440363 4055.061825,2513.655089 4045.480741,2478.631612 4037.059610,2453.561184 4018.319537,2399.454093 4006.251413,2372.942751 4000.514073,2364.790659 3994.942110,2360.126508 3984.638794,2356.645504 3975.460208,2356.125221 3964.061194,2360.820768 3951.886114,2367.148457 3941.994507,2358.262886 3856.799898,2402.002404"/>
    <poly id="229029081" type="building" color="255,230,230" fill="1" layer="-1.00" shape="3141.586110,3127.914892 3163.773644,3129.316666 3165.225203,3106.571178 3143.047830,3105.169212 3141.586110,3127.914892"/>
    <poly id="234407682" type="building" color="255,230,230" fill="1" layer="-1.00" shape="3766.116818,3250.623381 3800.015400,3249.408120 3800.675454,3267.748554 3790.554790,3268.110019 3790.657573,3270.956324 3766.879703,3271.810124 3766.116818,3250.623381"/>
    <poly id="234407900" type="building" color="255,230,230" fill="1" layer="-1.00" shape="3766.038579,3321.984361 3806.579724,3320.958526 3805.529799,3292.961337 3777.377347,3292.165864 3765.651812,3292.323821 3766.038579,3321.984361"/>
    <poly id="239696919" type="building" color="255,230,230" fill="1" layer="-1.00" shape="3825.674105,3227.485782 3861.648216,3226.554301 3862.055919,3242.239546 3851.474840,3242.520682 3851.569514,3246.043160 3842.863964,3246.268020 3842.779484,3242.745357 3826.082048,3243.182109 3825.674105,3227.485782"/>
    <poly id="24338289" type="water" color="181,209,209" fill="1" layer="-4.00" shape="3593.215606,3553.982202 3584.507227,3542.282610 3578.977849,3533.783355 3574.370132,3528.292816 3566.954025,3522.033328 3561.990278,3516.593606 3553.261796,3512.751829 3544.395629,3496.311853 3530.299332,3455.330927 3513.156324,3415.059369 3491.805520,3396.297879 3467.614114,3382.841235 3457.576123,3372.063599 3442.497234,3363.372650 3430.164869,3359.330619 3414.485542,3349.032602 3394.769991,3340.548093 3358.732630,3327.928104 3326.012165,3310.404713 3315.559990,3289.782422 3312.908304,3252.294548 3307.427335,3228.002016 3306.461244,3179.478559 3279.720654,3180.065758 3261.969410,3177.530105 3251.329403,3178.499860 3238.128958,3180.558056 3231.024589,3188.057415 3230.774278,3200.618385 3226.619467,3213.826837 3224.000030,3218.950359 3217.260875,3224.104673 3207.804071,3225.640258 3199.573586,3223.396538 3191.540929,3219.697414 3178.734958,3224.929138 3174.049645,3224.704278 3169.749086,3228.240434 3161.554890,3229.664364 3153.487210,3226.841413 3148.310151,3223.699763 3142.402937,3219.108550 3143.272607,3215.346819 3133.872318,3210.475766 3131.368782,3209.091795 3125.719876,3204.684278 3129.420511,3188.946190 3126.280615,3187.341096 3121.783381,3200.223361 3124.789946,3214.088077 3128.540365,3216.734866 3125.212108,3226.049423 3105.026650,3235.992881 3098.393539,3266.524141 3094.008708,3303.453297 3093.033859,3315.983174 3088.969477,3334.698016 3076.118614,3357.585021 3071.189782,3366.928803 3059.502930,3363.617822 3061.803998,3375.145923 3054.626572,3384.220433 3050.973030,3395.823941 3043.634670,3394.960428 3038.560860,3394.122089 3028.121159,3394.323682 3034.782016,3388.239765 3030.627506,3388.038518 3020.136824,3388.241047 3008.828618,3388.912885 3003.870527,3386.033272 2995.881365,3384.716196 2982.823484,3387.869213 2976.190959,3388.799292 2971.861443,3392.978830 3035.609071,3405.058932 3044.679314,3402.466356 3059.690047,3400.142194 3066.103407,3402.851198 3072.297107,3387.932022 3075.217876,3378.647042 3084.896911,3375.323027 3098.024280,3377.654654 3099.509716,3342.241274 3112.053556,3339.419138 3124.939129,3327.935385 3158.822747,3329.256754 3175.824306,3342.699982 3186.051870,3350.437401 3190.390358,3361.285571 3192.184162,3364.577590 3197.526057,3364.458004 3208.688433,3365.296188 3225.643762,3345.448645 3234.440100,3342.373563 3243.509622,3341.975458 3248.563871,3345.097209 3252.870253,3350.271767 3263.752140,3354.184945 3271.462371,3355.307769 3278.774399,3358.643262 3282.699542,3356.333048 3289.262345,3356.612370 3292.797384,3359.196627 3300.209313,3359.061506 3308.050114,3353.920391 3310.548782,3358.396476 3321.009694,3359.358359 3325.725664,3363.505885 3322.907366,3367.790748 3339.430934,3377.962459 3356.609085,3386.559632 3362.195159,3390.325589 3370.806681,3394.457540 3378.361219,3393.754654 3383.128444,3400.716199 3381.799240,3403.887834 3388.681501,3406.588428 3396.462253,3414.381652 3394.067905,3418.426044 3402.182159,3424.373509 3405.947913,3425.069572 3409.604851,3426.510142 3413.602670,3424.830338 3422.332558,3432.661690 3431.372326,3442.947699 3429.961124,3481.917067 3440.565035,3508.643065 3450.918070,3536.714612 3475.670914,3577.080187 3479.987812,3594.035225 3477.955286,3621.855900 3495.298472,3640.091902 3509.081419,3686.265078 3512.241737,3715.309952 3511.403781,3728.092172 3506.405730,3728.604361 3506.578505,3738.087769 3500.474555,3739.473456 3498.672664,3743.008332 3498.939844,3745.918142 3500.094188,3747.703546 3501.949047,3752.113805 3502.880706,3757.349902 3504.388341,3758.375265 3506.489491,3762.869696 3506.724172,3763.995828 3507.470016,3764.070899 3507.219169,3767.655093 3508.151214,3777.390647 3607.196806,3776.816635 3609.002112,3776.828086 3612.976359,3781.698466 3614.207201,3783.205424 3627.055191,3757.903022 3633.933474,3737.995655 3624.055989,3721.452161 3623.173989,3703.259814 3630.365593,3677.594970 3618.922307,3650.673601 3609.887319,3607.594547 3588.830464,3606.071844 3587.697045,3591.995651 3580.243702,3578.089970 3583.178249,3569.547394 3593.215606,3553.982202"/>
    <poly id="24818505" type="parking" color="184,184,179" fill="1" layer="-1.00" shape="3702.000471,3105.635541 3704.013475,3142.270566 3634.465780,3146.052238 3632.454212,3109.505836 3645.129599,3108.853953 3676.264088,3107.045978 3702.000471,3105.635541"/>
    <poly id="24818506" type="building" color="255,230,230" fill="1" layer="-1.00" shape="3673.059850,3105.264623 3641.925357,3107.072605 3639.401835,3059.209307 3767.447096,3053.576353 3770.259895,3101.667092 3698.796237,3103.854181 3673.059850,3105.264623"/>
    <poly id="24818506#1" type="shop" color="237,199,255" fill="1" layer="-1.00" shape="3673.059850,3105.264623 3641.925357,3107.072605 3639.401835,3059.209307 3767.447096,3053.576353 3770.259895,3101.667092 3698.796237,3103.854181 3673.059850,3105.264623"/>
    <poly id="24818507" type="water" color="181,209,209" fill="1" layer="-4.00" shape="3286.270507,3147.740794 3332.382074,3150.701560 3330.592018,3114.040252 3329.203739,3082.635778 3326.434637,3051.012658 3327.510350,3027.775358 3330.848582,3016.199872 3349.935778,2956.040150 3353.827233,2944.598664 3364.651066,2913.969081 3373.059391,2894.621106 3373.631267,2886.265619 3383.347284,2865.918572 3411.345881,2834.144943 3439.985278,2806.748347 3467.798134,2768.683427 3499.428043,2731.313751 3520.174179,2708.981696 3543.269254,2684.578828 3557.731743,2615.128043 3560.361492,2583.107427 3564.422010,2550.683964 3558.377832,2511.684198 3470.570098,2515.444126 3471.806311,2583.323550 3455.932622,2673.269384 3412.688111,2754.426805 3393.155320,2789.603626 3376.983354,2821.150709 3366.517883,2840.669148 3354.394201,2858.178649 3338.851302,2879.463086 3331.377466,2898.040450 3324.279272,2916.522314 3316.046694,2945.508839 3308.335129,2972.302638 3301.957631,2982.758788 3285.379361,3003.740791 3280.500831,3014.180713 3267.677571,3048.127241 3251.640725,3084.814326 3238.869824,3121.065090 3231.244007,3145.275190 3242.022342,3145.178414 3286.270507,3147.740794"/>
    <poly id="24821929" type="building" color="255,230,230" fill="1" layer="-1.00" shape="3757.158971,2464.546106 3861.473489,2448.685049 3845.790696,2404.574230 3800.672754,2378.409168 3743.527520,2389.688754 3757.158971,2464.546106"/>
    <poly id="24821929#1" type="leisure" color="207,245,201" fill="1" layer="-2.00" shape="3757.158971,2464.546106 3861.473489,2448.685049 3845.790696,2404.574230 3800.672754,2378.409168 3743.527520,2389.688754 3757.158971,2464.546106"/>
    <poly id="24821929#2" type="sport" color="79,230,125" fill="1" layer="-2.00" shape="3757.158971,2464.546106 3861.473489,2448.685049 3845.790696,2404.574230 3800.672754,2378.409168 3743.527520,2389.688754 3757.158971,2464.546106"/>
    <poly id="251880054" type="building" color="255,230,230" fill="1" layer="-1.00" shape="1657.120647,3012.744047 1636.686549,3008.552816 1639.138063,2994.299988 1659.572180,2998.491224 1657.120647,3012.744047"/>
    <poly id="262026526" type="building" color="255,230,230" fill="1" layer="-1.00" shape="2369.420200,3250.428330 2388.624476,3249.312338 2390.102962,3274.941316 2370.908713,3276.046045 2369.420200,3250.428330"/>
    <poly id="262363372" type="building" color="255,230,230" fill="1" layer="-1.00" shape="1618.957392,3029.502695 1622.449277,3011.362957 1636.040590,3014.482760 1632.538697,3032.633759 1618.957392,3029.502695"/>
    <poly id="272930517" type="building" color="255,230,230" fill="1" layer="-1.00" shape="2802.531652,3171.739027 2800.287691,3159.999333 2776.139101,3164.585226 2778.382880,3176.313838 2802.531652,3171.739027"/>
    <poly id="286597349" type="building" color="255,230,230" fill="1" layer="-1.00" shape="3536.606173,3341.333118 3555.464401,3341.388622 3555.503924,3326.759113 3536.655873,3326.703421 3536.645242,3330.039423 3536.606173,3341.333118"/>
    <poly id="286597349#1" type="tourism" color="207,245,201" fill="1" layer="-2.00" shape="3536.606173,3341.333118 3555.464401,3341.388622 3555.503924,3326.759113 3536.655873,3326.703421 3536.645242,3330.039423 3536.606173,3341.333118"/>
    <poly id="288273815" type="building" color="255,230,230" fill="1" layer="-1.00" shape="3095.999117,3148.129641 3076.879531,3148.301122 3076.754258,3133.608074 3095.873864,3133.436594 3095.999117,3148.129641"/>
    <poly id="295570957" type="unknown" color="51,128,255" fill="1" layer="-1.00" shape="2579.914818,3236.604952 2603.414649,3305.341286 2604.750748,3334.918216 2606.101657,3347.449995 2608.394281,3365.749624 2577.192751,3423.006946 2436.258209,3428.609500 2422.305858,3252.375669 2579.914818,3236.604952"/>
    <poly id="295573177" type="building" color="255,230,230" fill="1" layer="-1.00" shape="2186.214914,3301.435831 2189.006686,3333.601648 2214.483731,3331.406400 2211.692017,3299.240584 2186.214914,3301.435831"/>
    <poly id="295573640" type="building" color="255,230,230" fill="1" layer="-1.00" shape="2175.228912,3261.218949 2175.596400,3269.036490 2176.449596,3287.229474 2196.666827,3286.294161 2195.446180,3260.283638 2186.122285,3260.720300 2175.228912,3261.218949"/>
    <poly id="295575465" type="building" color="255,230,230" fill="1" layer="-1.00" shape="2268.247612,3257.078209 2269.935028,3279.622433 2291.282787,3278.045944 2290.836460,3272.047384 2289.595405,3255.501721 2276.466959,3256.473410 2268.247612,3257.078209"/>
    <poly id="295577557" type="building" color="255,230,230" fill="1" layer="-1.00" shape="2724.123482,3218.642637 2735.081468,3254.061560 2760.102024,3246.411970 2749.144098,3210.993033 2724.123482,3218.642637"/>
    <poly id="295577557#1" type="tourism" color="207,245,201" fill="1" layer="-2.00" shape="2724.123482,3218.642637 2735.081468,3254.061560 2760.102024,3246.411970 2749.144098,3210.993033 2724.123482,3218.642637"/>
    <poly id="295578111" type="building" color="255,230,230" fill="1" layer="-1.00" shape="2844.346114,3223.650438 2844.153078,3244.356028 2859.106926,3244.493021 2859.299982,3223.787434 2844.346114,3223.650438"/>
    <poly id="295578437" type="building" color="255,230,230" fill="1" layer="-1.00" shape="2818.935713,3202.137912 2820.019100,3219.018905 2841.004133,3217.682598 2839.910373,3200.790713 2818.935713,3202.137912"/>
    <poly id="295578533" type="building" color="255,230,230" fill="1" layer="-1.00" shape="2868.069315,3232.637365 2868.249996,3246.442828 2881.658073,3246.264512 2881.477606,3232.470129 2868.069315,3232.637365"/>
    <poly id="295578825" type="building" color="255,230,230" fill="1" layer="-1.00" shape="2868.791900,3207.976751 2868.293108,3187.361376 2881.606649,3187.029637 2881.698726,3190.397027 2887.753967,3190.242145 2888.181249,3207.500834 2874.449516,3207.829122 2868.791900,3207.976751"/>
    <poly id="295579090" type="building" color="255,230,230" fill="1" layer="-1.00" shape="3154.806038,3175.572117 3152.703943,3198.994422 3171.183291,3200.630066 3173.285415,3177.207766 3154.806038,3175.572117"/>
    <poly id="295579382" type="building" color="255,230,230" fill="1" layer="-1.00" shape="3144.895024,3175.132266 3144.319656,3194.470552 3151.340119,3194.674977 3151.636028,3184.617799 3151.905301,3175.336879 3144.895024,3175.132266"/>
    <poly id="295579536" type="building" color="255,230,230" fill="1" layer="-1.00" shape="3167.637872,3134.288705 3186.540418,3140.671028 3189.483848,3132.061705 3222.239846,3143.112054 3232.124945,3114.161799 3194.555932,3101.481409 3210.997310,3046.157281 3199.093416,3042.140846 3167.637872,3134.288705"/>
    <poly id="295580891" type="water" color="181,209,209" fill="1" layer="-4.00" shape="2972.178380,2615.106169 2967.413236,2624.491299 2967.621660,2635.913508 2966.426196,2659.829099 2972.268426,2679.848234 3022.559667,2677.578581 3024.190784,2647.349142 3020.843082,2613.675233 2995.030394,2608.161644 2972.178380,2615.106169"/>
    <poly id="296187712" type="tourism" color="207,245,201" fill="1" layer="-2.00" shape="1024.888683,1988.172613 1201.736097,1963.933447 1191.462809,1951.044641 1180.114269,1941.256550 1179.799055,1925.203651 1185.153144,1911.274239 1194.724917,1905.956134 1184.499410,1876.231983 1094.554359,1873.306935 1003.625890,1869.602564 1024.888683,1988.172613"/>
    <poly id="296191903" type="amenity" color="237,199,199" fill="1" layer="-1.00" shape="1390.882020,1966.224165 1402.837080,1968.498364 1404.104039,1961.947475 1405.551078,1955.204878 1399.220871,1953.747311 1397.518988,1959.386327 1392.771420,1958.575759 1390.882020,1966.224165"/>
    <poly id="315703903" type="building" color="255,230,230" fill="1" layer="-1.00" shape="2762.692746,2073.572882 2713.416607,2080.723118 2705.761822,2028.498228 2755.038141,2021.347983 2762.692746,2073.572882"/>