<?xml version="1.0" encoding="UTF-8"?>

<!-- generated on 09/13/20 07:39:12 by Eclipse SUMO duarouter Version 1.6.0
<configuration xmlns:xsi="http://www.w3.org/2001/XMLSchema-instance" xsi:noNamespaceSchemaLocation="http://sumo.dlr.de/xsd/duarouterConfiguration.xsd">

    <input>
        <net-file value="test.net.xml"/>
        <route-files value="trips.trips.xml"/>
    </input>

    <output>
        <output-file value="map.rou.xml"/>
        <alternatives-output value="map.rou.alt.xml"/>
    </output>

    <time>
        <begin value="0"/>
        <end value="1000.0"/>
    </time>

    <report>
        <no-warnings value="true"/>
        <ignore-errors value="true"/>
        <no-step-log value="true"/>
    </report>

</configuration>
-->

<routes xmlns:xsi="http://www.w3.org/2001/XMLSchema-instance" xsi:noNamespaceSchemaLocation="http://sumo.dlr.de/xsd/routes_file.xsd">
    <vehicle id="0" depart="0.00">
        <route edges="-697813631#0 697813631#0 697813631#1 33783946#2 33783946#3"/>
    </vehicle>
    <vehicle id="1" depart="1.00">
        <route edges="-499813383#2 -499813383#1 141821922#6 141821922#7 141821922#8 141697286#0 141697286#1 141697286#2 141697286#3 141697286#4 141697286#5 141697286#6 141697286#7 141697286#8 141697286#9 141697286#10 141697286#11 566606801 604327587#1 490106122#0 143955381#0 490106120#1 24375232#0 24375232#1 24375232#2 604371831 604371833#0 604371833#1 604371833#2 -606028889#1"/>
    </vehicle>
    <vehicle id="2" depart="2.00">
        <route edges="33790381#1 -33790381#1 -33790381#0 33783901#1 -33783046#2 -697239595 -697239596#0 737533817#3 33071363#0 33071363#1 33071363#2 -33071363#2"/>
    </vehicle>
    <vehicle id="3" depart="3.00">
        <route edges="-157062072#3 -157062072#2 -157062072#1 -157062072#0 384311993#2 384311993#3 384311993#4 384311993#5 384311993#6 384311993#7 384311993#8 170115771#2 170115771#3 170115771#4 606372019#0 606372019#1 606372019#2 606372019#3 606372019#4 606372019#5 606372019#6 606372019#7 606372019#8 606372019#9 606372019#10 606372019#11 606372019#12 24375232#0 24375232#1 24375232#2 24375232#3 24375232#4 13847051 604371832#0 604371832#1 604371832#2 33784366#0 33784366#1 -717625484#4 -717625484#3 -717625484#2 -717625484#1 -717625484#0"/>
    </vehicle>
    <vehicle id="4" depart="4.00">
        <route edges="35216684 35216689#0"/>
    </vehicle>
    <vehicle id="5" depart="5.00">
        <route edges="-505509523 -505509524#0 -505509526#0 -33784331 13848340#3 13848340#4 13848340#5 13848340#6 13848340#7 13848340#8 13848340#9 654422275 444363895 384314184 444363905 384311993#0 384311993#1 384311993#2 384311993#3 384311993#4 384311993#5 384311993#6 384311993#7 384311993#8 384311993#9 143957229#0 143957229#1 143957229#2 143957229#3 -24337629#2 -24337629#1"/>
    </vehicle>
    <vehicle id="6" depart="6.00">
        <route edges="35213568#1 -35213568#1 -35213568#0 -157062072#3 -157062072#2 -157062072#1 -157062072#0 384311993#2 384311993#3 384311993#4 384311993#5 384311993#6 384311993#7 384311993#8 170115771#2 170115771#3 170115771#4 606372019#0 606372019#1 606372019#2 606372019#3 606372019#4 606372019#5 606372019#6 606372019#7 606372019#8 606372019#9 606372019#10 606372019#11 606372019#12 24375232#0 24375232#1 24375232#2 604371831 604371833#0 604371833#1 604371833#2 604371833#3 604371833#4 604371833#5 33782696#0 33782696#1 33782696#2 448270100#0 33782733#0 33782733#1 33782733#2 33782733#3 33782733#4 33782733#5 33782733#6 33782733#7 33782733#8 33782733#9 33782737#1"/>
    </vehicle>
    <vehicle id="7" depart="7.00">
        <route edges="35475414#0 35475414#1 35475414#2 606372019#10 606372019#11 606372019#12 24375232#0 24375232#1 24375232#2 24375232#3 24375232#4 13847051 604371832#0 604371832#1 604371832#2 604371832#3 604371832#4 604371832#5 604371832#6 604371832#7 604371832#8 28869409#0 28869409#1 32463065#0 32463065#1 28952143#3"/>
    </vehicle>
    <vehicle id="8" depart="8.00">
        <route edges="35213562#0 -35213562#0 32443470#6 32443470#7 32443470#8 -760022716#0 384314184 444363905 384311993#0 384311993#1 384311993#2 384311993#3 384311993#4 384311993#5 384311993#6 384311993#7 384311993#8 170115771#2 170115771#3 170115771#4 606372019#0 606372019#1 606372019#2 606372019#3 440310062#1 143955381#12 616717660"/>
    </vehicle>
    <vehicle id="9" depart="9.00">
        <route edges="-450298656#1 -450298656#0 -33790381#2 -33790381#1 -33790381#0 33783901#1 -33783046#2 -697239595 -697239596#0 737533817#3 33071363#0 33071363#1 33071363#2 33071363#3 33071363#4 33071363#5 33071363#6 33071363#7"/>
    </vehicle>
    <vehicle id="10" depart="10.00">
        <route edges="-23747533#1 -23747533#0 170115771#0 170115771#1 170115771#2 170115771#3 170115771#4 606372019#0 606372019#1 606372019#2 606372019#3 606372019#4 606372019#5 606372019#6 606372019#7 606372019#8 606372019#9 606372019#10 606372019#11 606372019#12 24375232#0 24375232#1 24375232#2 604371831 604371833#0 604371833#1 604371833#2 604371833#3 604371833#4 604371833#5 604371833#6 604371833#7 604371833#8 737533817#0 737533817#1 737533817#2 737533817#3 33071363#0 33071363#1 33071363#2 33071363#3 33071363#4 33071363#5 33783946#0 33783946#1 -697813631#1"/>
    </vehicle>
    <vehicle id="12" depart="12.00">
        <route edges="384314184 444363905 384311993#0 384311993#1 384311993#2 384311993#3 384311993#4 384311993#5 384311993#6 384311993#7 384311993#8 170115771#2 170115771#3 170115771#4 606372019#0 606372019#1 606372019#2 606372019#3 606372019#4 606372019#5 -33040042#3 -33040042#2 -33040042#1"/>
    </vehicle>
    <vehicle id="14" depart="14.00">
        <route edges="-33782749#1 -33782749#0 -33782696#10 448265816 448266228 -33782568 -33784063#2 -33784063#1 -33784063#0 141697286#10 141697286#11 566606801 604327587#1 490106122#0 143955381#0 143955381#1 143955381#2 143955381#3 143955381#4 143955381#5 143955381#6 143955381#7 143955381#8 143955381#9 143955381#10 143955381#11 143955381#12 143955381#13 143955381#14 143955381#15 143955381#16 143955381#17 143955381#18 143955381#19 143955381#20 24375222#6 13847053#0 13847053#1 13847053#2 13847053#3 13847053#4 13847053#5 13847053#6 13847053#7 13847053#8 222971032#1 444362407#1"/>
    </vehicle>
    <vehicle id="15" depart="15.00">
        <route edges="-717625484#4 717625484#4 -33784366#1 -698152816 33784421#3 33784421#4 33784462#0 33784462#1 33784477#2 -33040048#0 -33040042#3 143955381#10 143955381#11 143955381#12 143955381#13 143955381#14 143955381#15 29024279 606372018#0 606372018#1 606372018#2 606372018#3 -29024101#0 24449125#1 24449125#2 24449125#3 24449125#4 157062072#1 157062072#2 157062072#3 35213568#0 35213568#1 -35213581 -24386850#1 -24386850#0 35216683 -35213568#2"/>
    </vehicle>
    <vehicle id="16" depart="16.00">
        <route edges="33040048#1 -33040043#2 -33040043#1 143955381#11 143955381#12 143955381#13 143955381#14 143955381#15 143955381#16 143955381#17 143955383#0 143955383#1 143955383#2 143955383#3 29047356#3"/>
    </vehicle>
    <vehicle id="17" depart="17.00">
        <route edges="606372018#3 -29024101#0 24449125#1 24449125#2 24449125#3 24449125#4 157062072#1 157062072#2 157062072#3 157062072#4 157062072#5 157062072#6 24449124#0 24449124#1 -35213567 -32443470#6 35213562#0 -35213566 35213566"/>
    </vehicle>
    <vehicle id="18" depart="18.00">
        <route edges="-698152723#1 -698152723#0 33784421#1 33784421#2 -33784421#2"/>
    </vehicle>
    <vehicle id="19" depart="19.00">
        <route edges="24375222#0 24375222#1 24375222#2 24375222#3 24375222#4 24375222#5 24375222#6 13847053#0 13847053#1 13847053#2 13847053#3 13847053#4 13847053#5 13847053#6 13847053#7 13847053#8 13847053#9 444363903 384314185 32443474 760022716#0 760022716#1 24449123#0 24449123#1 -35216685 157062072#5 -35213569"/>
    </vehicle>
    <vehicle id="20" depart="20.00">
        <route edges="222970999#0 222970999#1 222970999#2 222970999#3 444363895 384314184 444363905 384311993#0 384311993#1 384311993#2 384311993#3 384311993#4 384311993#5 384311993#6 384311993#7 384311993#8 170115771#2 170115771#3 170115771#4 606372019#0 606372019#1 606372019#2 606372019#3 606372019#4 606372019#5 606372019#6 606372019#7 606372019#8 606372019#9 606372019#10 -35213577 -35213807#2"/>
    </vehicle>
    <vehicle id="21" depart="21.00">
        <route edges="-29260328 29288480#1 29288480#2 29047135#1 24375222#1 24375222#2 24375222#3 24375222#4 24375222#5 24375222#6 170115771#1 170115771#2 170115771#3 170115771#4 606372019#0 606372019#1 606372019#2 606372019#3 -440310062#0 33040048#3 440313867"/>
    </vehicle>
    <vehicle id="22" depart="22.00">
        <route edges="616717657 616717659 -616717659 -616717657 -616717658 34210124 -440310062#2 143955381#12 143955381#13 143955381#14 143955381#15 143955381#16 143955381#17 143955381#18 143955381#19 143955381#20 24375222#6 13847053#0 13847053#1 13847053#2 13847053#3 13847053#4 13847053#5 13847053#6 13847053#7 13847053#8 13847053#9 444363903 384314185 441887280#0 441887280#1 441887280#2 -496264397#2 -496264397#1 -496264397#0 496264397#0"/>
    </vehicle>
    <vehicle id="23" depart="23.00">
        <route edges="-33784063#6 33784063#6"/>
    </vehicle>
    <vehicle id="24" depart="24.00">
        <route edges="-33790404#1 -33790404#0 33783046#5 33783046#6 33783046#7 33783046#8 737533817#2 737533817#3 33071363#0 141697286#0 141697286#1 141697286#2 141697286#3 141697286#4 141697286#5 141697286#6 141697286#7 141697286#8 141697286#9 141697286#10 141697286#11 566606801 604327587#1 490106122#0 143955381#0 143955381#1 143955381#2 143955381#3 143955381#4 143955381#5 143955381#6 143955381#7 143955381#8 143955381#9 143955381#10 143955381#11 143955381#12 143955381#13 143955381#14 143955381#15 143955381#16 143955381#17 143955381#18 143955381#19 143957229#0 143957229#1 143957229#2 143957229#3 -24337629#2 -24337629#1 -24337629#0"/>
    </vehicle>
    <vehicle id="25" depart="25.00">
        <route edges="141821922#8 141697286#0 141697286#1 141697286#2 141697286#3 141697286#4 141697286#5 141697286#6 141697286#7 141697286#8 -33782696#0 604371833#6 -698242587 33789102#1"/>
    </vehicle>
    <vehicle id="27" depart="27.00">
        <route edges="32463065#5 441887280#4 441887280#5 441887280#6 441887280#7 688669194#2 688669194#3 33789612 -450299538#1 -450299538#0 -33789604#0 -33783845#2 -33783845#1 -33783845#0"/>
    </vehicle>
    <vehicle id="28" depart="28.00">
        <route edges="141697339 141697287 737533817#1 737533817#2 737533817#3 33071363#0 141697286#0 141697286#1 141697286#2 141697286#3 141697286#4 141697286#5 141697286#6 141697286#7 141697286#8 141697286#9 141697286#10 141697286#11 566606801 604327587#1 490106122#0 143955381#0 143955381#1 143955381#2 143955381#3 143955381#4 143955381#5 143955381#6 143955381#7 143955381#8 143955381#9 143955381#10 143955381#11 143955381#12 143955381#13 143955381#14 143955381#15 143955381#16 143955381#17 143955381#18 143955381#19 143955381#20 143955381#21 170115770#0 -29288480#6 -29288480#5 29288480#5"/>
    </vehicle>
    <vehicle id="29" depart="29.00">
        <route edges="-499813383#2 -499813383#1 141821922#6 141821922#7 141821922#8 33071363#1 33071363#2 33071363#3 33071363#4 33071363#5 33783946#0 33783946#1"/>
    </vehicle>
    <vehicle id="30" depart="30.00">
        <route edges="29024301 -29024301 24449125#2 24449125#3 24449125#4 157062072#1 157062072#2 157062072#3 157062072#4 157062072#5 157062072#6 24449124#0 24449124#1 -35213567 -32443470#6 -32443470#5 -32443470#4 -32443470#3 -32443470#2 -32443470#1 -32443470#0 -515668751#1 -515668751#0 -515665905#1 -515665905#0 -515665906#1 -515665906#0 13848340#5 13848340#6 13848340#7"/>
    </vehicle>
    <vehicle id="31" depart="31.00">
        <route edges="-33784455#6 -33784455#5 -33784455#4 -33784455#3 -33784455#2 33784462#1 33784477#2 -33040048#0 606372019#6 606372019#7 606372019#8 606372019#9 606372019#10 606372019#11 606372019#12 24375232#0 24375232#1 24375232#2 604371831 604371833#0 604371833#1 604371833#2 -606028889#1 606028889#1"/>
    </vehicle>
    <vehicle id="32" depart="32.00">
        <route edges="355486255#0 -355486255#0 -33784421#5 -33784421#4 -33784421#3 -33784421#2 -33784421#1 -33784421#0 604371832#0 604371832#1 604371832#2 604371832#3 604371832#4 604371832#5 604371832#6 604371832#7 604371832#8 13848340#0 13848340#1 13848340#2 13848340#3 13848340#4 515665906#0 515665906#1 515665905#0 515665905#1 515668751#0 515668751#1 32443470#0 32443470#1 32443470#2 32443470#3 32443470#4"/>
    </vehicle>
    <vehicle id="33" depart="33.00">
        <route edges="606372019#10 606372019#11 606372019#12 606372019#13 490106122#0 143955381#0 143955381#1 143955381#2 143955381#3 143955381#4 143955381#5 143955381#6 143955381#7 143955381#8 143955381#9 143955381#10 143955381#11 143955381#12 143955381#13 143955381#14 143955381#15 143955381#16 143955381#17 143955383#0 143955383#1 143955383#2 143955383#3 -29047356#2 -29047356#1 591497173"/>
    </vehicle>
    <vehicle id="34" depart="34.00">
        <route edges="222970999#0 222970999#1 222970999#2 222970999#3 444363895 384314184 444363905 384311993#0 384311993#1 384311993#2 384311993#3 384311993#4 384311993#5 157062075"/>
    </vehicle>
    <vehicle id="35" depart="35.00">
        <route edges="-29023978#1 -29023978#0 13847053#5 13847053#6 13847053#7 13847053#8 13847053#9 444363903 384314185 32443474 384314184 444363905 384311993#0 384311993#1 384311993#2 384311993#3 384311993#4 384311993#5 384311993#6 384311993#7 384311993#8 170115771#2 170115771#3 170115771#4 606372019#0 606372019#1 606372019#2 606372019#3 606372019#4 606372019#5 606372019#6 606372019#7 606372019#8 606372019#9"/>
    </vehicle>
    <vehicle id="37" depart="37.00">
        <route edges="450299186#1 -33790381#0 33783901#1 -33783046#2 -697239595 -697239596#0 737533817#3 33071363#0 141697286#0 141697286#1 141697286#2 141697286#3 141697286#4 141697286#5 141697286#6 141697286#7 141697286#8 33782696#1 33782696#2 448270100#0 33782733#0 -448270435#0"/>
    </vehicle>
    <vehicle id="38" depart="38.00">
        <route edges="35213587#1 -33784366#2 -33784366#1 -698152816 33784421#3 33784421#4 33784462#0 33784462#1 33784477#2 -33040048#0 -33040042#3 -33040042#2 -33040042#1"/>
    </vehicle>
    <vehicle id="39" depart="39.00">
        <route edges="157062072#5 -157062072#5 -157062072#4 -157062072#3 -157062072#2 -157062072#1 -157062072#0 384311993#2 384311993#3 384311993#4 384311993#5 384311993#6 384311993#7 384311993#8 170115771#2 170115771#3 170115771#4 606372019#0 606372019#1 606372019#2 606372019#3 606372019#4 606372019#5 606372019#6 606372019#7 606372019#8 606372019#9 606372019#10 606372019#11 606372019#12 24375232#0 24375232#1 24375232#2 604371831 604371833#0 604371833#1 604371833#2 604371833#3 604371833#4 604371833#5 604371833#6 604371833#7 604371833#8 737533817#0 737533817#1 737533817#2 737533817#3 33071363#0 33071363#1 33071363#2 33071363#3 33071363#4 33071363#5 33071363#6 33071363#7"/>
    </vehicle>
    <vehicle id="40" depart="40.00">
        <route edges="-448267193 -33784063#5 -33784063#4 -33784063#3 -33784063#2 -33784063#1 -33784063#0 141697286#10 141697286#11 566606801 604327587#1 490106122#0 143955381#0 490106120#1 24375232#0 24375232#1 24375232#2 24375232#3 24375232#4 13847051 604371832#0 604371832#1 604371832#2 604371832#3 604371832#4 604371832#5 604371832#6 604371832#7 33789615#0 688669194#5 688669194#6 688669194#7 688669194#8 688669194#9 688669194#10 688669194#11 698432777#0 698432777#1 450298217#0"/>
    </vehicle>
    <vehicle id="41" depart="41.00">
        <route edges="33782696#12 -366205724#1 -366205724#0 -33782568 -33784063#2 -33784063#1 -33784063#0 141697286#10 141697286#11 566606801 604327587#1 490106122#0 143955381#0 143955381#1 143955381#2 143955381#3 143955381#4 143955381#5 143955381#6 143955381#7 143955381#8 143955381#9 143955381#10 143955381#11 143955381#12 143955381#13 143955381#14 143955381#15 143955381#16 143955381#17 143955381#18 143955381#19 143957229#0 143957229#1 143957229#2 143957229#3 -24337629#2 715774198#2"/>
    </vehicle>
    <vehicle id="42" depart="42.00">
        <route edges="-366205727#3 -366205727#2 -366205727#1 -366205727#0 -366205724#1 -366205724#0 -33782568 -33784063#2 -33784063#1 -33784063#0 141697286#10 141697286#11 566606801 604327587#1 490106122#0 143955381#0 490106120#1 24375232#0 24375232#1 24375232#2 604371831 604371833#0 604371833#1 604371833#2 -606028889#1 -606028889#0 606026895 606026896 450298656#2 450298656#3 450298656#4 450303581#2 450303583#0 450303583#1 -33783845#0"/>
    </vehicle>
    <vehicle id="43" depart="43.00">
        <route edges="141697286#4 141697286#5 141697286#6 141697286#7 141697286#8 141697286#9 141697286#10 141697286#11 566606801 604327587#1 490106122#0 143955381#0 143955381#1 143955381#2 143955381#3 143955381#4 143955381#5 143955381#6 143955381#7 143955381#8 143955381#9 143955381#10 143955381#11 143955381#12 143955381#13 143955381#14 143955381#15 143955381#16 143955381#17 143955381#18 143955381#19 143955381#20 24375222#6 13847053#0 13847053#1 13847053#2 13847053#3 13847053#4 13847053#5 13847053#6 13847053#7 13847053#8 13847053#9 444363903 384314185"/>
    </vehicle>
    <vehicle id="44" depart="44.00">
        <route edges="-33784455#3 -33784455#2 33784462#1 33784477#2 -33040048#0 606372019#6 606372019#7 606372019#8 606372019#9 606372019#10 606372019#11 606372019#12 24375232#0 24375232#1 24375232#2 604371831 604371833#0 604371833#1 604371833#2 604371833#3 604371833#4 604371833#5 604371833#6 604371833#7 604371833#8 737533817#0 737533817#1 737533817#2 737533817#3 141821921#0 141821921#1 141821921#2 141821921#3 141821921#4 -571237794 571237792#1 571237792#0"/>
    </vehicle>
    <vehicle id="45" depart="45.00">
        <route edges="-33789612 688669194#4 688669194#5 688669194#6 688669194#7 688669194#8 688669194#9 688669194#10 688669194#11 688669194#12 604371834 604327587#0 604327587#1 490106122#0 143955381#0 143955381#1 143955381#2 143955382#0 143955382#1 698175744"/>
    </vehicle>
    <vehicle id="47" depart="47.00">
        <route edges="24449124#1 -24449123#3 -24449123#2 -24449123#1 -24449123#0 -760022716#1 -760022716#0 384314184 444363905 384311993#0 384311993#1 384311993#2 384311993#3 384311993#4 384311993#5 384311993#6 384311993#7 384311993#8 170115771#2 170115771#3 170115771#4 606372019#0 606372019#1 606372019#2 606372019#3 606372019#4 606372019#5 606372019#6 606372019#7 606372019#8 606372019#9 606372019#10 606372019#11 606372019#12 24375232#0 24375232#1 24375232#2 24375232#3 24375232#4 13847051 604371832#0 604371832#1 604371832#2 33784366#0 33784366#1"/>
    </vehicle>
    <vehicle id="48" depart="48.00">
        <route edges="-450302779#0 450302779#0 450302779#1 506012307 -450300367#0 -33789615#1 -33789615#0 604371832#8 13848340#0 13848340#1 13848340#2 13848340#3 13848340#4 515665906#0 515665906#1 515665905#0 515665905#1 515668751#0 515668751#1 32443470#0 32443470#1 32443470#2 32443470#3 32443470#4 32443470#5 32443470#6 35213567 -24449124#1 -24449124#0 -157062072#6 35216684 35216689#0 35216689#1 35213568#1 -35213581 -24386850#1"/>
    </vehicle>
    <vehicle id="49" depart="49.00">
        <route edges="498004706 688669194#8 688669194#9 688669194#10 688669194#11 698432777#0 698432777#1 698432777#2 604371833#1 604371833#2 -606028889#1 -606028889#0 -505230286#4 -505230286#3 -505230286#2 -33790461 33790404#3"/>
    </vehicle>
    <vehicle id="50" depart="50.00">
        <route edges="-33790381#1 -33790381#0 33783901#1 -33783046#2 -697239595 -697239596#0 737533817#3 33071363#0 141697286#0 141697286#1 141697286#2 141697286#3 141697286#4 141697286#5 141697286#6 141697286#7 141697286#8 141697286#9 141697286#10 141697286#11 566606801 604327587#1 490106122#0 143955381#0 143955381#1 143955381#2 143955381#3 143955381#4 143955381#5 143955381#6 143955381#7 143955381#8 143955381#9 143955381#10 143955381#11 -440310062#1 606372019#4"/>
    </vehicle>
    <vehicle id="51" depart="51.00">
        <route edges="222970999#0 222970999#1 496264397#0 496264397#1 496264397#2 441887280#3 441887280#4 441887280#5 441887280#6 441887280#7 688669194#2 688669194#3 688669194#4 688669194#5 688669194#6 688669194#7 688669194#8 688669194#9 688669194#10 688669194#11 698432777#0 698432777#1 698432777#2 604371833#1 604371833#2 604371833#3 604371833#4 604371833#5 33782696#0 141697286#9 33784063#0 33784063#1 33784063#2 33784063#3 33782654 -33782654"/>
    </vehicle>
    <vehicle id="52" depart="52.00">
        <route edges="697813631#1 33783946#2 33784045 -448268737"/>
    </vehicle>
    <vehicle id="53" depart="53.00">
        <route edges="698432777#1 698432777#2 604371833#1 604371833#2 604371833#3 604371833#4 604371833#5 33782696#0 141697286#9 141697286#10 141697286#11 566606801 604327587#1 490106122#0 143955381#0 143955381#1 143955381#2 143955381#3 143955381#4 143955381#5 143955381#6 143955381#7 143955381#8 143955381#9 143955381#10 143955381#11 143955381#12 143955381#13 143955381#14 143955381#15 143955381#16 143955381#17 143955381#18 143955381#19 143955381#20 24375222#6 13847053#0 13847053#1 13847053#2 29023945#0 -29023852#4"/>
    </vehicle>
    <vehicle id="54" depart="54.00">
        <route edges="-33783946#3 -33783946#2 -33783946#1 -33783946#0 -33071363#5 -33071363#4 -33071363#3 -33071363#2 -33071363#1 -33071363#0 141821921#0 141821921#1 33783046#0 33783046#1 33783046#2 -33783901#1 33790381#0 33790381#1 33790381#2 450298656#0 450298656#1 450298656#2 450298656#3 450298656#4 450303581#2 450303583#0 450303583#1 33783845#1 497334562"/>
    </vehicle>
    <vehicle id="55" depart="55.00">
        <route edges="-33071363#6 -33071363#5 -33071363#4 -33071363#3 -33071363#2 -33071363#1 141697286#0 141697286#1 141697286#2 141697286#3 141697286#4 141697286#5 141697286#6 141697286#7 141697286#8 141697286#9 141697286#10 141697286#11 566606801 604327587#1 490106122#0 143955381#0 143955381#1 143955381#2 143955381#3 143955381#4 143955381#5 143955381#6 143955381#7 143955381#8 143955381#9 -33040042#2 -33040042#1 -33040042#0"/>
    </vehicle>
    <vehicle id="56" depart="56.00">
        <route edges="29047390 -715774197#4 -29240869#3 -29240869#2 -29240869#1 -29240869#0 143955381#17 143955381#18 143955381#19 143955381#20 24375222#6 13847053#0 13847053#1 13847053#2 13847053#3 13847053#4 13847053#5 13847053#6 13847053#7 13847053#8 13847053#9 444363903 384314185 32443474 384314184 444363905 384311993#0 384311993#1 157062072#0"/>
    </vehicle>
    <vehicle id="57" depart="57.00">
        <route edges="-619526004#0 619526004#0 -29023952 -23747533#0 170115771#0 170115771#1 170115771#2 170115771#3 170115771#4 606372019#0 606372019#1 606372019#2 606372019#3 606372019#4 606372019#5 606372019#6 606372019#7 606372019#8 606372019#9 606372019#10 606372019#11 606372019#12 24375232#0 24375232#1 24375232#2 604371831 604371833#0 604371833#1 604371833#2 604371833#3 604371833#4 604371833#5 604371833#6 604371833#7 604371833#8 737533817#0 737533817#1 737533817#2 737533817#3 33071363#0 33071363#1"/>
    </vehicle>
    <vehicle id="58" depart="58.00">
        <route edges="-33782737#0 33782696#12 -366205724#1 -366205724#0 -33782568 -33784063#2 -33784063#1 -33784063#0 141697286#10 141697286#11 566606801 604327587#1 490106122#0 143955381#0 143955381#1 33785059#0 33785059#1 33785059#2 698173292"/>
    </vehicle>
    <vehicle id="59" depart="59.00">
        <route edges="604371832#3 604371832#4 604371832#5 604371832#6 604371832#7 33789615#0 688669194#5 688669194#6 688669194#7 688669194#8 688669194#9 688669194#10 688669194#11 698432777#0 698432777#1 698432777#2 604371833#1 604371833#2 604371833#3 604371833#4 604371833#5 604371833#6 604371833#7 604371833#8 737533817#0 737533817#1 737533817#2 737533817#3 33071363#0 33071363#1 33071363#2 33071363#3 33071363#4 33071363#5 33783946#0 33783946#1 33783946#2 33784045 -33784045"/>
    </vehicle>
    <vehicle id="60" depart="60.00">
        <route edges="141697339 141697287 737533817#1 -33783046#8 -33783046#7 -33783046#6 -33783046#5 33790404#0 450299186#1 33790381#1 33790381#2 450298656#0 450298656#1 450298656#2 450298656#3 450298656#4 450303581#2 450303583#0 450303583#1 33783845#1 33783845#2 33789604#0 33789604#1 33789604#2 688669194#1 688669194#2 464703455 28869409#0 28869409#1 32463065#0 32463065#1 32463065#2 32463065#3 32463065#4 752091839"/>
    </vehicle>
    <vehicle id="62" depart="62.00">
        <route edges="32443470#4 32443470#5 32443470#6 32443470#7 32443470#8 -760022716#0 384314184 444363905 384311993#0 384311993#1 384311993#2 384311993#3 384311993#4 384311993#5 384311993#6 384311993#7 384311993#8 170115771#2 170115771#3 170115771#4 606372019#0 606372019#1 606372019#2 606372019#3 606372019#4 606372019#5 606372019#6 606372019#7 606372019#8 606372019#9 606372019#10 606372019#11 606372019#12 24375232#0"/>
    </vehicle>
    <vehicle id="63" depart="63.00">
        <route edges="32443470#5 32443470#6 32443470#7 32443470#8 -760022716#0 384314184 444363905 384311993#0 384311993#1 384311993#2 384311993#3 384311993#4 384311993#5 384311993#6 384311993#7 384311993#8 170115771#2 170115771#3 170115771#4 606372019#0 606372019#1 606372019#2 606372019#3 606372019#4 606372019#5 -33040042#3 -33040042#2 -33040042#1 35213585"/>
    </vehicle>
    <vehicle id="64" depart="64.00">
        <route edges="24375222#0 24375222#1 24375222#2 24375222#3 24375222#4 24375222#5 24375222#6 170115771#1 170115771#2 170115771#3 170115771#4 606372019#0 606372019#1 606372019#2 606372019#3 606372019#4 606372019#5 606372019#6 606372019#7 606372019#8 606372019#9 606372019#10 606372019#11 606372019#12 24375232#0 24375232#1 24375232#2 604371831 604371833#0 604371833#1 604371833#2 604371833#3 604371833#4 604371833#5 604371833#6 604371833#7 604371833#8 737533817#0 737533817#1 737533817#2 737533817#3 33071363#0 33071363#1 498227538#0 498227538#1 697813631#0 697813630"/>
    </vehicle>
    <vehicle id="65" depart="65.00">
        <route edges="606030108#1 606030108#2 -33783046#5 33790404#0 450299186#1 33790381#1 33790381#2 450298656#0 450298656#1 450298656#2 450298656#3 450298656#4 450303581#2 450303583#0 450303583#1 33783845#1 33783845#2 33789604#0 33789604#1 33789604#2 688669194#1 688669194#2 464703455 28869409#0 28869409#1 32463065#0 32463065#1 32463065#2 32463065#3 32463065#4 32463065#5 441887280#4"/>
    </vehicle>
    <vehicle id="66" depart="66.00">
        <route edges="141697286#8 141697286#9 141697286#10 141697286#11 566606801 604327587#1 490106122#0 143955381#0 143955381#1 143955381#2 143955381#3 143955381#4 143955381#5 143955381#6 143955381#7 143955381#8 143955381#9 143955381#10 143955381#11 143955381#12 143955381#13 143955381#14 143955381#15 143955381#16 29240869#0 29240869#1 29047361#0 29047361#1 29047361#2 29047361#3 -29047361#3"/>
    </vehicle>
    <vehicle id="67" depart="67.00">
        <route edges="604371832#3 604371832#4 604371832#5 604371832#6 604371832#7 604371832#8 13848340#0 13848340#1 13848340#2 13848340#3 13848340#4 13848340#5 13848340#6 13848340#7 -654425409 -409570237#2 -409570237#1 35213566 -35213566"/>
    </vehicle>
    <vehicle id="68" depart="68.00">
        <route edges="29240869#0 -29240869#0 143955381#17 143955381#18 143955381#19 143955381#20 24375222#6 170115771#1 170115771#2 170115771#3 170115771#4 606372019#0 606372019#1 606372019#2 606372019#3 606372019#4 606372019#5 606372019#6 606372019#7 606372019#8 606372019#9 606372019#10 606372019#11 606372019#12 24375232#0 24375232#1 24375232#2 24375232#3 24375232#4 13847051 604371832#0 604371832#1 604371832#2 604371832#3 604371832#4 604371832#5 604371832#6 604371832#7 33789615#0 688669194#5 688669194#6 688669194#7 688669194#8 688669194#9 688669194#10 688669194#11 698432777#0 698432777#1 450298217#0"/>
    </vehicle>
    <vehicle id="69" depart="69.00">
        <route edges="33782696#5 -33782696#5 -33782696#4 -33782696#3 -33782696#2 -33782696#1 -33782696#0 604371833#6 604371833#7 604371833#8 737533817#0 737533817#1 737533817#2 737533817#3 141821921#0 141821921#1 141821921#2 141821921#3 141821921#4 141821921#5 24375730"/>
    </vehicle>
    <vehicle id="70" depart="70.00">
        <route edges="-35475461 -143955382#0 143955381#3 143955381#4 35475414#2 606372019#10 606372019#11 606372019#12 24375232#0 24375232#1 24375232#2 24375232#3 24375232#4 13847051 604371832#0 604371832#1 604371832#2 604371832#3 604371832#4 604371832#5 604371832#6 604371832#7 33789615#0 688669194#5 688669194#6 688669194#7 688669194#8 688669194#9 688669194#10 688669194#11 698432777#0 698432777#1 450298217#0"/>
    </vehicle>
    <vehicle id="71" depart="71.00">
        <route edges="448270454#0 -33782733#1 -33782733#0 -448270100#0 -33782696#2 -33782696#1 141697286#9 141697286#10 141697286#11 566606801 604327587#1 490106122#0 143955381#0 490106120#1 24375232#0 24375232#1 24375232#2 24375232#3 24375232#4 13847051 604371832#0 604371832#1 604371832#2 604371832#3 604371832#4 604371832#5 604371832#6 604371832#7 604371832#8 28869409#0 441887280#7 688669194#2 688669194#3 33789612"/>
    </vehicle>
    <vehicle id="72" depart="72.00">
        <route edges="-29024093 -29023852#1 -29023999 13847053#6 13847053#7 13847053#8 13847053#9 444363903 384314185 32443474 384314184 444363905 384311993#0 384311993#1 384311993#2 384311993#3 384311993#4 384311993#5 384311993#6 384311993#7 384311993#8 170115771#2 170115771#3 170115771#4 606372019#0 606372019#1 606372019#2 606372019#3 606372019#4 606372019#5 606372019#6 606372019#7 606372019#8 606372019#9 606372019#10 606372019#11 606372019#12 24375232#0 24375232#1 24375232#2 604371831 604371833#0 604371833#1 604371833#2 604371833#3 604371833#4 604371833#5 33782696#0 33782696#1 33782696#2 448270100#0 33782733#0 33782733#1 33782733#2 33782733#3 33782733#4 33782733#5 33782733#6 33782733#7 33782733#8 33782733#9 -33782737#0"/>
    </vehicle>
    <vehicle id="74" depart="74.00">