<?xml version="1.0" encoding="UTF-8"?>

<!-- generated on 10/21/20 13:11:23 by Eclipse SUMO netedit Version 1.6.0
<configuration xmlns:xsi="http://www.w3.org/2001/XMLSchema-instance" xsi:noNamespaceSchemaLocation="http://sumo.dlr.de/xsd/netconvertConfiguration.xsd">

    <input>
        <sumo-net-file value="D:\Univers\Thesis\try4\test.net.xml"/>
    </input>

    <output>
        <output-file value="D:\Univers\Thesis\try4\test.net.xml"/>
    </output>

    <processing>
        <geometry.min-radius.fix.railways value="false"/>
        <geometry.max-grade.fix value="false"/>
        <offset.disable-normalization value="true"/>
        <lefthand value="false"/>
    </processing>

    <junctions>
        <no-turnarounds value="true"/>
        <junctions.corner-detail value="5"/>
        <junctions.limit-turn-speed value="5.5"/>
        <rectangular-lane-cut value="false"/>
    </junctions>

    <pedestrian>
        <walkingareas value="false"/>
    </pedestrian>

    <report>
        <aggregate-warnings value="5"/>
    </report>

</configuration>
-->

<net version="1.6" junctionCornerDetail="5" limitTurnSpeed="5.50" xmlns:xsi="http://www.w3.org/2001/XMLSchema-instance" xsi:noNamespaceSchemaLocation="http://sumo.dlr.de/xsd/net_file.xsd">

    <location netOffset="-234903.36,-2631456.49" convBoundary="0.00,0.00,2464.24,2463.60" origBoundary="90.398620,23.772685,90.422798,23.794908" projParameter="+proj=utm +zone=46 +ellps=WGS84 +datum=WGS84 +units=m +no_defs"/>

    <type id="highway.bridleway" priority="1" numLanes="1" speed="2.78" allow="pedestrian" oneway="1" width="2.00"/>
    <type id="highway.bus_guideway" priority="1" numLanes="1" speed="27.78" allow="bus" oneway="1"/>
    <type id="highway.cycleway" priority="1" numLanes="1" speed="8.33" allow="bicycle" oneway="0" width="1.00"/>
    <type id="highway.footway" priority="1" numLanes="1" speed="2.78" allow="pedestrian" oneway="1" width="2.00"/>
    <type id="highway.ford" priority="1" numLanes="1" speed="2.78" allow="army" oneway="0"/>
    <type id="highway.living_street" priority="2" numLanes="1" speed="2.78" disallow="tram rail_urban rail rail_electric rail_fast ship" oneway="0"/>
    <type id="highway.motorway" priority="14" numLanes="2" speed="39.44" allow="private emergency authority army vip passenger hov taxi bus coach delivery truck trailer motorcycle evehicle custom1 custom2" oneway="1"/>
    <type id="highway.motorway_link" priority="9" numLanes="1" speed="22.22" allow="private emergency authority army vip passenger hov taxi bus coach delivery truck trailer motorcycle evehicle custom1 custom2" oneway="1"/>
    <type id="highway.path" priority="1" numLanes="1" speed="2.78" allow="pedestrian bicycle" oneway="1" width="2.00"/>
    <type id="highway.pedestrian" priority="1" numLanes="1" speed="2.78" allow="pedestrian" oneway="1" width="2.00"/>
    <type id="highway.primary" priority="12" numLanes="2" speed="27.78" disallow="tram rail_urban rail rail_electric rail_fast ship" oneway="0"/>
    <type id="highway.primary_link" priority="7" numLanes="1" speed="22.22" disallow="tram rail_urban rail rail_electric rail_fast ship" oneway="0"/>
    <type id="highway.raceway" priority="15" numLanes="2" speed="83.33" allow="vip" oneway="0"/>
    <type id="highway.residential" priority="3" numLanes="1" speed="13.89" disallow="tram rail_urban rail rail_electric rail_fast ship" oneway="0"/>
    <type id="highway.secondary" priority="11" numLanes="1" speed="27.78" disallow="tram rail_urban rail rail_electric rail_fast ship" oneway="0"/>
    <type id="highway.secondary_link" priority="6" numLanes="1" speed="22.22" disallow="tram rail_urban rail rail_electric rail_fast ship" oneway="0"/>
    <type id="highway.service" priority="1" numLanes="1" speed="5.56" allow="pedestrian delivery bicycle" oneway="0"/>
    <type id="highway.stairs" priority="1" numLanes="1" speed="1.39" allow="pedestrian" oneway="1" width="2.00"/>
    <type id="highway.step" priority="1" numLanes="1" speed="1.39" allow="pedestrian" oneway="1" width="2.00"/>
    <type id="highway.steps" priority="1" numLanes="1" speed="1.39" allow="pedestrian" oneway="1" width="2.00"/>
    <type id="highway.tertiary" priority="10" numLanes="1" speed="22.22" disallow="tram rail_urban rail rail_electric rail_fast ship" oneway="0"/>
    <type id="highway.tertiary_link" priority="5" numLanes="1" speed="22.22" disallow="tram rail_urban rail rail_electric rail_fast ship" oneway="0"/>
    <type id="highway.track" priority="1" numLanes="1" speed="5.56" disallow="tram rail_urban rail rail_electric rail_fast ship" oneway="0"/>
    <type id="highway.trunk" priority="13" numLanes="2" speed="27.78" disallow="pedestrian bicycle tram rail_urban rail rail_electric rail_fast ship" oneway="0"/>
    <type id="highway.trunk_link" priority="8" numLanes="1" speed="22.22" disallow="pedestrian bicycle tram rail_urban rail rail_electric rail_fast ship" oneway="0"/>
    <type id="highway.unclassified" priority="4" numLanes="1" speed="13.89" disallow="tram rail_urban rail rail_electric rail_fast ship" oneway="0"/>
    <type id="highway.unsurfaced" priority="1" numLanes="1" speed="8.33" disallow="tram rail_urban rail rail_electric rail_fast ship" oneway="0"/>
    <type id="railway.highspeed" priority="21" numLanes="1" speed="69.44" allow="rail_fast" oneway="1"/>
    <type id="railway.light_rail" priority="19" numLanes="1" speed="27.78" allow="rail_urban" oneway="1"/>
    <type id="railway.preserved" priority="16" numLanes="1" speed="27.78" allow="rail" oneway="1"/>
    <type id="railway.rail" priority="20" numLanes="1" speed="44.44" allow="rail" oneway="1"/>
    <type id="railway.subway" priority="18" numLanes="1" speed="27.78" allow="rail_urban" oneway="1"/>
    <type id="railway.tram" priority="17" numLanes="1" speed="13.89" allow="tram" oneway="1"/>

    <edge id=":1149635257_0" function="internal">
        <lane id=":1149635257_0_0" index="0" disallow="tram rail_urban rail rail_electric rail_fast ship" speed="26.54" length="9.10" shape="1824.20,845.34 1822.03,844.33 1820.65,843.22 1819.24,842.36 1816.97,842.06"/>
        <lane id=":1149635257_0_1" index="1" disallow="tram rail_urban rail rail_electric rail_fast ship" speed="27.78" length="9.10" shape="1825.12,842.27 1822.65,841.18 1821.06,840.03 1819.44,839.15 1816.86,838.86"/>
        <lane id=":1149635257_0_2" index="2" disallow="tram rail_urban rail rail_electric rail_fast ship" speed="27.78" length="9.10" shape="1826.04,839.21 1823.28,838.03 1821.48,836.84 1819.63,835.95 1816.75,835.67"/>
    </edge>
    <edge id=":1149635257_3" function="internal">
        <lane id=":1149635257_3_0" index="0" disallow="tram rail_urban rail rail_electric rail_fast ship" speed="11.50" length="9.38" shape="1825.49,833.23 1823.30,834.82 1821.52,835.48 1819.54,835.63 1816.75,835.67"/>
    </edge>
    <edge id=":1311343255_0" function="internal">
        <lane id=":1311343255_0_0" index="0" disallow="tram rail_urban rail rail_electric rail_fast ship" speed="13.89" length="14.40" shape="1732.76,966.07 1718.36,966.11"/>
    </edge>
    <edge id=":1311343255_1" function="internal">
        <lane id=":1311343255_1_0" index="0" disallow="tram rail_urban rail rail_electric rail_fast ship" speed="8.04" length="5.91" shape="1732.76,966.07 1728.92,965.53 1727.18,964.49"/>
    </edge>
    <edge id=":1311343255_8" function="internal">
        <lane id=":1311343255_8_0" index="0" disallow="tram rail_urban rail rail_electric rail_fast ship" speed="8.04" length="8.30" shape="1727.18,964.49 1726.17,963.88 1724.49,961.13 1723.88,957.28"/>
    </edge>
    <edge id=":1311343255_2" function="internal">
        <lane id=":1311343255_2_0" index="0" disallow="tram rail_urban rail rail_electric rail_fast ship" speed="6.55" length="9.09" shape="1727.08,957.23 1727.47,959.70 1728.54,961.47 1730.30,962.52 1732.75,962.87"/>
    </edge>
    <edge id=":1311343255_3" function="internal">
        <lane id=":1311343255_3_0" index="0" disallow="tram rail_urban rail rail_electric rail_fast ship" speed="7.98" length="14.24" shape="1727.08,957.23 1726.58,961.10 1724.97,963.88 1722.22,965.55 1718.36,966.11"/>
    </edge>
    <edge id=":1311343255_4" function="internal">
        <lane id=":1311343255_4_0" index="0" disallow="tram rail_urban rail rail_electric rail_fast ship" speed="3.65" length="4.67" shape="1727.08,957.23 1726.30,958.44 1725.50,958.85 1724.70,958.46 1723.88,957.28"/>
    </edge>
    <edge id=":1311343255_5" function="internal">
        <lane id=":1311343255_5_0" index="0" disallow="tram rail_urban rail rail_electric rail_fast ship" speed="6.48" length="9.03" shape="1718.35,962.91 1720.80,962.55 1722.54,961.50 1723.57,959.74 1723.88,957.28"/>
    </edge>
    <edge id=":1311343255_6" function="internal">
        <lane id=":1311343255_6_0" index="0" disallow="tram rail_urban rail rail_electric rail_fast ship" speed="13.89" length="14.40" shape="1718.35,962.91 1732.75,962.87"/>
    </edge>
    <edge id=":1311343255_7" function="internal">
        <lane id=":1311343255_7_0" index="0" disallow="tram rail_urban rail rail_electric rail_fast ship" speed="3.65" length="2.34" shape="1718.35,962.91 1719.55,963.71 1719.95,964.51"/>
    </edge>
    <edge id=":1311343255_9" function="internal">
        <lane id=":1311343255_9_0" index="0" disallow="tram rail_urban rail rail_electric rail_fast ship" speed="3.65" length="2.34" shape="1719.95,964.51 1719.55,965.31 1718.36,966.11"/>
    </edge>
    <edge id=":1512627041_0" function="internal">
        <lane id=":1512627041_0_0" index="0" disallow="tram rail_urban rail rail_electric rail_fast ship" speed="27.78" length="9.11" shape="1852.42,763.59 1851.72,754.70"/>
        <lane id=":1512627041_0_1" index="1" disallow="tram rail_urban rail rail_electric rail_fast ship" speed="27.78" length="9.11" shape="1855.62,763.43 1854.90,754.35"/>
        <lane id=":1512627041_0_2" index="2" disallow="tram rail_urban rail rail_electric rail_fast ship" speed="27.78" length="9.11" shape="1858.82,763.28 1858.08,754.00"/>
    </edge>
    <edge id=":1512627041_3" function="internal">
        <lane id=":1512627041_3_0" index="0" disallow="tram rail_urban rail rail_electric rail_fast ship" speed="6.13" length="7.68" shape="1858.82,763.28 1858.87,760.53 1859.33,758.54 1860.19,757.29 1861.46,756.79"/>
    </edge>
    <edge id=":1512627041_4" function="internal">
        <lane id=":1512627041_4_0" index="0" disallow="tram rail_urban rail rail_electric rail_fast ship" speed="6.89" length="10.03" shape="1861.73,759.98 1858.99,759.82 1856.94,758.83 1855.58,757.01 1854.90,754.35"/>
    </edge>
    <edge id=":1512627041_5" function="internal">
        <lane id=":1512627041_5_0" index="0" disallow="tram rail_urban rail rail_electric rail_fast ship" speed="6.11" length="7.68" shape="1861.73,759.98 1860.39,759.70 1859.34,758.61 1858.57,756.71 1858.08,754.00"/>
    </edge>
    <edge id=":1512627041_6" function="internal">
        <lane id=":1512627041_6_0" index="0" disallow="tram rail_urban rail rail_electric rail_fast ship" speed="3.65" length="4.67" shape="1861.73,759.98 1860.47,759.28 1860.00,758.52 1860.33,757.69 1861.46,756.79"/>
    </edge>
    <edge id=":1575325576_0" function="internal">
        <lane id=":1575325576_0_0" index="0" disallow="tram rail_urban rail rail_electric rail_fast ship" speed="6.89" length="10.20" shape="1722.37,858.31 1722.72,855.52 1723.86,853.51 1725.80,852.27 1728.53,851.81"/>
    </edge>
    <edge id=":1575325576_1" function="internal">
        <lane id=":1575325576_1_0" index="0" disallow="tram rail_urban rail rail_electric rail_fast ship" speed="6.11" length="7.80" shape="1722.37,858.31 1722.74,856.92 1723.90,855.91 1725.86,855.27 1728.61,855.01"/>
    </edge>
    <edge id=":1575325576_2" function="internal">
        <lane id=":1575325576_2_0" index="0" disallow="tram rail_urban rail rail_electric rail_fast ship" speed="3.65" length="4.67" shape="1722.37,858.31 1723.15,857.10 1723.94,856.69 1724.75,857.07 1725.57,858.26"/>
    </edge>
    <edge id=":1575325576_3" function="internal">
        <lane id=":1575325576_3_0" index="0" disallow="tram rail_urban rail rail_electric rail_fast ship" speed="27.78" length="9.46" shape="1718.96,848.89 1728.46,848.62"/>
        <lane id=":1575325576_3_1" index="1" disallow="tram rail_urban rail rail_electric rail_fast ship" speed="27.78" length="9.46" shape="1719.07,852.09 1728.53,851.81"/>
        <lane id=":1575325576_3_2" index="2" disallow="tram rail_urban rail rail_electric rail_fast ship" speed="27.78" length="9.46" shape="1719.19,855.29 1728.61,855.01"/>
    </edge>
    <edge id=":1575325576_6" function="internal">
        <lane id=":1575325576_6_0" index="0" disallow="tram rail_urban rail rail_electric rail_fast ship" speed="6.06" length="7.81" shape="1719.19,855.29 1721.96,855.39 1723.95,855.92 1725.15,856.88 1725.57,858.26"/>
    </edge>
    <edge id=":1575325577_0" function="internal">
        <lane id=":1575325577_0_0" index="0" disallow="tram rail_urban rail rail_electric rail_fast ship" speed="27.78" length="12.53" shape="1802.02,846.54 1805.94,846.57 1808.60,847.05 1811.23,847.86 1815.08,848.83"/>
        <lane id=":1575325577_0_1" index="1" disallow="tram rail_urban rail rail_electric rail_fast ship" speed="27.78" length="12.53" shape="1802.18,849.73 1805.86,849.77 1808.35,850.26 1810.82,851.04 1814.43,851.96"/>
        <lane id=":1575325577_0_2" index="2" disallow="tram rail_urban rail rail_electric rail_fast ship" speed="27.78" length="12.53" shape="1802.34,852.93 1805.78,852.98 1808.10,853.46 1810.40,854.22 1813.77,855.10"/>
    </edge>
    <edge id=":1575325577_3" function="internal">
        <lane id=":1575325577_3_0" index="0" disallow="tram rail_urban rail rail_electric rail_fast ship" speed="9.05" length="11.43" shape="1802.34,852.93 1804.86,853.21 1807.21,854.31 1809.38,856.24 1811.39,858.98"/>
    </edge>
    <edge id=":1575325582_0" function="internal">
        <lane id=":1575325582_0_0" index="0" disallow="tram rail_urban rail rail_electric rail_fast ship" speed="6.86" length="10.15" shape="1634.07,861.44 1634.37,858.68 1635.48,856.67 1637.41,855.42 1640.14,854.93"/>
    </edge>
    <edge id=":1575325582_1" function="internal">
        <lane id=":1575325582_1_0" index="0" disallow="tram rail_urban rail rail_electric rail_fast ship" speed="6.08" length="7.75" shape="1634.07,861.44 1634.42,860.08 1635.57,859.07 1637.51,858.42 1640.26,858.13"/>
    </edge>
    <edge id=":1575325582_2" function="internal">
        <lane id=":1575325582_2_0" index="0" disallow="tram rail_urban rail rail_electric rail_fast ship" speed="3.65" length="4.67" shape="1634.07,861.44 1634.83,860.22 1635.62,859.79 1636.43,860.16 1637.27,861.33"/>
    </edge>
    <edge id=":1575325582_3" function="internal">
        <lane id=":1575325582_3_0" index="0" disallow="tram rail_urban rail rail_electric rail_fast ship" speed="27.78" length="9.33" shape="1630.75,852.00 1640.03,851.73"/>
        <lane id=":1575325582_3_1" index="1" disallow="tram rail_urban rail rail_electric rail_fast ship" speed="27.78" length="9.33" shape="1630.82,855.20 1640.14,854.93"/>
        <lane id=":1575325582_3_2" index="2" disallow="tram rail_urban rail rail_electric rail_fast ship" speed="27.78" length="9.33" shape="1630.89,858.40 1640.26,858.13"/>
    </edge>
    <edge id=":1575325582_6" function="internal">
        <lane id=":1575325582_6_0" index="0" disallow="tram rail_urban rail rail_electric rail_fast ship" speed="6.10" length="7.74" shape="1630.89,858.40 1633.64,858.53 1635.62,859.07 1636.83,860.00 1637.27,861.33"/>
    </edge>
    <edge id=":1575325597_0" function="internal">
        <lane id=":1575325597_0_0" index="0" disallow="tram rail_urban rail rail_electric rail_fast ship" speed="27.78" length="15.78" shape="1844.15,854.82 1859.55,857.36"/>
        <lane id=":1575325597_0_1" index="1" disallow="tram rail_urban rail rail_electric rail_fast ship" speed="27.78" length="15.78" shape="1843.53,857.96 1859.10,860.53"/>
        <lane id=":1575325597_0_2" index="2" disallow="tram rail_urban rail rail_electric rail_fast ship" speed="27.78" length="15.78" shape="1842.92,861.10 1858.65,863.70"/>
    </edge>
    <edge id=":1575325597_3" function="internal">
        <lane id=":1575325597_3_0" index="0" disallow="tram rail_urban rail rail_electric rail_fast ship" speed="27.78" length="13.69" shape="1845.19,867.27 1847.92,853.93"/>
        <lane id=":1575325597_3_1" index="1" disallow="tram rail_urban rail rail_electric rail_fast ship" speed="27.78" length="13.69" shape="1848.32,867.94 1851.06,854.53"/>
        <lane id=":1575325597_3_2" index="2" disallow="tram rail_urban rail rail_electric rail_fast ship" speed="27.78" length="13.69" shape="1851.45,868.60 1854.21,855.13"/>
    </edge>
    <edge id=":1575325616_0" function="internal">
        <lane id=":1575325616_0_0" index="0" disallow="tram rail_urban rail rail_electric rail_fast ship" speed="27.78" length="8.28" shape="20.36,961.68 22.71,960.86 24.10,959.60 25.50,958.39 27.86,957.75"/>
        <lane id=":1575325616_0_1" index="1" disallow="tram rail_urban rail rail_electric rail_fast ship" speed="27.78" length="8.28" shape="20.36,961.68 28.05,960.94"/>
        <lane id=":1575325616_0_2" index="2" disallow="tram rail_urban rail rail_electric rail_fast ship" speed="27.78" length="8.28" shape="20.36,961.68 22.74,961.87 24.29,962.80 25.84,963.78 28.24,964.14"/>
    </edge>
    <edge id=":1575361842_0" function="internal">
        <lane id=":1575361842_0_0" index="0" disallow="tram rail_urban rail rail_electric rail_fast ship" speed="27.78" length="13.93" shape="1840.89,852.35 1837.89,865.92"/>
        <lane id=":1575361842_0_1" index="1" disallow="tram rail_urban rail rail_electric rail_fast ship" speed="27.78" length="13.93" shape="1837.77,851.64 1834.77,865.24"/>
        <lane id=":1575361842_0_2" index="2" disallow="tram rail_urban rail rail_electric rail_fast ship" speed="27.78" length="13.93" shape="1834.65,850.94 1831.64,864.56"/>
    </edge>
    <edge id=":1575361842_3" function="internal">
        <lane id=":1575361842_3_0" index="0" disallow="tram rail_urban rail rail_electric rail_fast ship" speed="27.78" length="15.66" shape="1828.65,851.66 1843.96,854.78"/>
        <lane id=":1575361842_3_1" index="1" disallow="tram rail_urban rail rail_electric rail_fast ship" speed="27.78" length="15.66" shape="1827.99,854.79 1843.34,857.92"/>
        <lane id=":1575361842_3_2" index="2" disallow="tram rail_urban rail rail_electric rail_fast ship" speed="27.78" length="15.66" shape="1827.34,857.93 1842.72,861.06"/>
    </edge>
    <edge id=":1575361860_0" function="internal">
        <lane id=":1575361860_0_0" index="0" disallow="tram rail_urban rail rail_electric rail_fast ship" speed="26.71" length="8.76" shape="1834.82,880.02 1833.94,882.14 1832.84,883.47 1831.96,884.81 1831.77,886.97"/>
        <lane id=":1575361860_0_1" index="1" disallow="tram rail_urban rail rail_electric rail_fast ship" speed="27.78" length="8.76" shape="1831.69,879.34 1830.76,881.75 1829.63,883.30 1828.75,884.86 1828.59,887.31"/>
        <lane id=":1575361860_0_2" index="2" disallow="tram rail_urban rail rail_electric rail_fast ship" speed="27.78" length="8.76" shape="1828.57,878.66 1827.57,881.36 1826.41,883.12 1825.54,884.90 1825.41,887.65"/>
    </edge>
    <edge id=":1575361860_3" function="internal">
        <lane id=":1575361860_3_0" index="0" disallow="tram rail_urban rail rail_electric rail_fast ship" speed="21.99" length="9.37" shape="1822.88,879.39 1824.65,881.77 1826.39,883.15 1827.79,884.63 1828.59,887.31"/>
        <lane id=":1575361860_3_1" index="1" disallow="tram rail_urban rail rail_electric rail_fast ship" speed="20.54" length="9.37" shape="1822.88,879.39 1824.06,881.69 1824.72,883.35 1825.10,885.09 1825.41,887.65"/>
    </edge>
    <edge id=":1575361864_0" function="internal">
        <lane id=":1575361864_0_0" index="0" disallow="tram rail_urban rail rail_electric rail_fast ship" speed="27.78" length="9.34" shape="1839.50,958.60 1840.58,967.80"/>
        <lane id=":1575361864_0_1" index="1" disallow="tram rail_urban rail rail_electric rail_fast ship" speed="27.78" length="9.34" shape="1836.32,958.94 1837.41,968.22"/>
        <lane id=":1575361864_0_2" index="2" disallow="tram rail_urban rail rail_electric rail_fast ship" speed="27.78" length="9.34" shape="1833.14,959.28 1834.24,968.63"/>
    </edge>
    <edge id=":1575361864_3" function="internal">
        <lane id=":1575361864_3_0" index="0" disallow="tram rail_urban rail rail_electric rail_fast ship" speed="5.98" length="8.06" shape="1833.14,959.28 1833.22,962.11 1832.76,964.13 1831.76,965.34 1830.22,965.75"/>
    </edge>
    <edge id=":1575361864_4" function="internal">
        <lane id=":1575361864_4_0" index="0" disallow="tram rail_urban rail rail_electric rail_fast ship" speed="7.19" length="10.17" shape="1830.21,962.55 1833.09,962.90 1835.24,963.96 1836.68,965.73 1837.41,968.22"/>
    </edge>
    <edge id=":1575361864_5" function="internal">
        <lane id=":1575361864_5_0" index="0" disallow="tram rail_urban rail rail_electric rail_fast ship" speed="6.42" length="7.93" shape="1830.21,962.55 1831.68,962.93 1832.84,964.07 1833.69,965.97 1834.24,968.63"/>
    </edge>
    <edge id=":1575361864_6" function="internal">
        <lane id=":1575361864_6_0" index="0" disallow="tram rail_urban rail rail_electric rail_fast ship" speed="3.65" length="4.67" shape="1830.21,962.55 1831.42,963.35 1831.82,964.15 1831.42,964.95 1830.22,965.75"/>
    </edge>
    <edge id=":1693014270_0" function="internal">
        <lane id=":1693014270_0_0" index="0" disallow="tram rail_urban rail rail_electric rail_fast ship" speed="27.78" length="9.45" shape="1842.78,730.75 1843.87,740.16"/>
        <lane id=":1693014270_0_1" index="1" disallow="tram rail_urban rail rail_electric rail_fast ship" speed="27.78" length="9.45" shape="1839.60,731.13 1840.69,740.51"/>
        <lane id=":1693014270_0_2" index="2" disallow="tram rail_urban rail rail_electric rail_fast ship" speed="27.78" length="9.45" shape="1836.42,731.51 1837.51,740.87"/>
    </edge>
    <edge id=":1693014270_3" function="internal">
        <lane id=":1693014270_3_0" index="0" disallow="tram rail_urban rail rail_electric rail_fast ship" speed="6.03" length="7.91" shape="1836.42,731.51 1836.55,734.30 1836.15,736.33 1835.25,737.58 1833.83,738.08"/>
    </edge>
    <edge id=":1693014270_4" function="internal">
        <lane id=":1693014270_4_0" index="0" disallow="tram rail_urban rail rail_electric rail_fast ship" speed="6.99" length="10.20" shape="1833.62,734.88 1836.46,735.08 1838.58,736.08 1839.99,737.90 1840.69,740.51"/>
    </edge>
    <edge id=":1693014270_5" function="internal">
        <lane id=":1693014270_5_0" index="0" disallow="tram rail_urban rail rail_electric rail_fast ship" speed="6.21" length="7.85" shape="1833.62,734.88 1835.06,735.18 1836.19,736.28 1837.00,738.17 1837.51,740.87"/>
    </edge>
    <edge id=":1693014270_6" function="internal">
        <lane id=":1693014270_6_0" index="0" disallow="tram rail_urban rail rail_electric rail_fast ship" speed="3.65" length="4.67" shape="1833.62,734.88 1834.87,735.60 1835.32,736.38 1834.97,737.20 1833.83,738.08"/>
    </edge>
    <edge id=":1693014272_0" function="internal">
        <lane id=":1693014272_0_0" index="0" disallow="tram rail_urban rail rail_electric rail_fast ship" speed="27.78" length="11.09" shape="1849.60,815.18 1849.24,818.59 1848.60,820.87 1847.76,823.12 1846.81,826.45"/>
        <lane id=":1693014272_0_1" index="1" disallow="tram rail_urban rail rail_electric rail_fast ship" speed="27.78" length="11.09" shape="1846.41,815.04 1846.06,818.28 1845.42,820.44 1844.60,822.57 1843.69,825.74"/>
        <lane id=":1693014272_0_2" index="2" disallow="tram rail_urban rail rail_electric rail_fast ship" speed="27.78" length="11.09" shape="1843.21,814.90 1842.87,817.97 1842.24,820.01 1841.45,822.02 1840.57,825.02"/>
    </edge>
    <edge id=":1693014272_3" function="internal">
        <lane id=":1693014272_3_0" index="0" disallow="tram rail_urban rail rail_electric rail_fast ship" speed="11.39" length="10.70" shape="1843.21,814.90 1842.66,817.84 1841.40,819.60 1839.53,821.07 1837.14,823.15"/>
    </edge>
    <edge id=":1693014276_0" function="internal">
        <lane id=":1693014276_0_0" index="0" disallow="tram rail_urban rail rail_electric rail_fast ship" speed="27.78" length="15.76" shape="1844.52,851.24 1829.29,846.86"/>
        <lane id=":1693014276_0_1" index="1" disallow="tram rail_urban rail rail_electric rail_fast ship" speed="27.78" length="15.76" shape="1845.35,848.16 1830.21,843.80"/>
        <lane id=":1693014276_0_2" index="2" disallow="tram rail_urban rail rail_electric rail_fast ship" speed="27.78" length="15.76" shape="1846.19,845.07 1831.13,840.73"/>
    </edge>
    <edge id=":1693014276_3" function="internal">
        <lane id=":1693014276_3_0" index="0" disallow="tram rail_urban rail rail_electric rail_fast ship" speed="27.78" length="14.28" shape="1844.11,838.24 1840.94,852.15"/>
        <lane id=":1693014276_3_1" index="1" disallow="tram rail_urban rail rail_electric rail_fast ship" speed="27.78" length="14.28" shape="1840.99,837.52 1837.81,851.45"/>
        <lane id=":1693014276_3_2" index="2" disallow="tram rail_urban rail rail_electric rail_fast ship" speed="27.78" length="14.28" shape="1837.87,836.81 1834.69,850.74"/>
    </edge>
    <edge id=":1812632814_0" function="internal">
        <lane id=":1812632814_0_0" index="0" disallow="tram rail_urban rail rail_electric rail_fast ship" speed="11.11" length="9.55" shape="1963.62,862.57 1954.00,862.97"/>
        <lane id=":1812632814_0_1" index="1" disallow="tram rail_urban rail rail_electric rail_fast ship" speed="11.11" length="9.55" shape="1963.45,859.37 1953.90,859.77"/>
        <lane id=":1812632814_0_2" index="2" disallow="tram rail_urban rail rail_electric rail_fast ship" speed="11.11" length="9.55" shape="1963.28,856.18 1953.81,856.58"/>
    </edge>
    <edge id=":1812632814_3" function="internal">
        <lane id=":1812632814_3_0" index="0" disallow="tram rail_urban rail rail_electric rail_fast ship" speed="6.40" length="8.00" shape="1963.28,856.18 1960.55,856.11 1958.53,855.60 1957.21,854.62 1956.60,853.20"/>
    </edge>
    <edge id=":1812632814_4" function="internal">
        <lane id=":1812632814_4_0" index="0" disallow="tram rail_urban rail rail_electric rail_fast ship" speed="6.77" length="10.81" shape="1959.76,852.69 1959.80,855.71 1958.84,857.90 1956.88,859.25 1953.90,859.77"/>
    </edge>
    <edge id=":1812632814_5" function="internal">
        <lane id=":1812632814_5_0" index="0" disallow="tram rail_urban rail rail_electric rail_fast ship" speed="5.96" length="8.13" shape="1959.76,852.69 1959.61,854.31 1958.56,855.50 1956.63,856.26 1953.81,856.58"/>
    </edge>
    <edge id=":1812632814_6" function="internal">
        <lane id=":1812632814_6_0" index="0" disallow="tram rail_urban rail rail_electric rail_fast ship" speed="3.65" length="4.67" shape="1959.76,852.69 1959.16,854.00 1958.43,854.52 1957.58,854.25 1956.60,853.20"/>
    </edge>
    <edge id=":1812632823_0" function="internal">
        <lane id=":1812632823_0_0" index="0" disallow="tram rail_urban rail rail_electric rail_fast ship" speed="19.45" length="19.83" shape="1891.91,864.89 1886.13,864.15 1882.45,862.10 1878.80,859.68 1873.09,857.83"/>
        <lane id=":1812632823_0_1" index="1" disallow="tram rail_urban rail rail_electric rail_fast ship" speed="19.45" length="19.83" shape="1891.81,861.69 1886.21,860.95 1882.67,858.90 1879.15,856.49 1873.62,854.67"/>
        <lane id=":1812632823_0_2" index="2" disallow="tram rail_urban rail rail_electric rail_fast ship" speed="19.45" length="19.83" shape="1891.72,858.49 1886.30,857.75 1882.89,855.70 1879.50,853.31 1874.16,851.52"/>
    </edge>
    <edge id=":1812632823_3" function="internal">
        <lane id=":1812632823_3_0" index="0" disallow="tram rail_urban rail rail_electric rail_fast ship" speed="14.41" length="19.45" shape="1891.72,858.49 1889.01,857.88 1885.45,855.90 1881.03,852.56 1875.76,847.85"/>
    </edge>
    <edge id=":210330099_0" function="internal">
        <lane id=":210330099_0_0" index="0" disallow="tram rail_urban rail rail_electric rail_fast ship" speed="27.78" length="15.31" shape="1859.69,855.00 1844.71,851.30"/>
        <lane id=":210330099_0_1" index="1" disallow="tram rail_urban rail rail_electric rail_fast ship" speed="27.78" length="15.31" shape="1860.41,851.89 1845.55,848.21"/>
        <lane id=":210330099_0_2" index="2" disallow="tram rail_urban rail rail_electric rail_fast ship" speed="27.78" length="15.31" shape="1861.12,848.77 1846.38,845.12"/>
    </edge>
    <edge id=":210330099_3" function="internal">
        <lane id=":210330099_3_0" index="0" disallow="tram rail_urban rail rail_electric rail_fast ship" speed="27.78" length="13.47" shape="1847.96,853.73 1850.29,840.53"/>
        <lane id=":210330099_3_1" index="1" disallow="tram rail_urban rail rail_electric rail_fast ship" speed="27.78" length="13.47" shape="1851.10,854.33 1853.44,841.07"/>
        <lane id=":210330099_3_2" index="2" disallow="tram rail_urban rail rail_electric rail_fast ship" speed="27.78" length="13.47" shape="1854.24,854.93 1856.60,841.60"/>
    </edge>
    <edge id=":226051900_0" function="internal">
        <lane id=":226051900_0_0" index="0" disallow="tram rail_urban rail rail_electric rail_fast ship" speed="25.00" length="9.36" shape="1863.42,830.42 1862.57,827.78 1862.07,825.93 1861.80,824.05 1861.63,821.28"/>
    </edge>
    <edge id=":226051900_1" function="internal">