<?xml version="1.0" encoding="UTF-8"?>

<!-- generated on 09/13/20 07:39:13 by Eclipse SUMO duarouter Version 1.6.0
<configuration xmlns:xsi="http://www.w3.org/2001/XMLSchema-instance" xsi:noNamespaceSchemaLocation="http://sumo.dlr.de/xsd/duarouterConfiguration.xsd">

    <input>
        <net-file value="test.net.xml"/>
        <route-files value="trips.trips.xml"/>
    </input>

    <output>
        <output-file value="trips.trips.xml.tmp"/>
        <write-trips value="true"/>
    </output>

    <time>
        <begin value="0"/>
        <end value="1000.0"/>
    </time>

    <report>
        <no-warnings value="true"/>
        <ignore-errors value="true"/>
        <no-step-log value="true"/>
    </report>

</configuration>
-->

<routes xmlns:xsi="http://www.w3.org/2001/XMLSchema-instance" xsi:noNamespaceSchemaLocation="http://sumo.dlr.de/xsd/routes_file.xsd">
    <trip id="0" depart="0.00" from="-697813631#0" to="33783946#3"/>
    <trip id="1" depart="1.00" from="-499813383#2" to="-606028889#1"/>
    <trip id="2" depart="2.00" from="33790381#1" to="-33071363#2"/>
    <trip id="3" depart="3.00" from="-157062072#3" to="-717625484#0"/>
    <trip id="4" depart="4.00" from="35216684" to="35216689#0"/>
    <trip id="5" depart="5.00" from="-505509523" to="-24337629#1"/>
    <trip id="6" depart="6.00" from="35213568#1" to="33782737#1"/>
    <trip id="7" depart="7.00" from="35475414#0" to="28952143#3"/>
    <trip id="8" depart="8.00" from="35213562#0" to="616717660"/>
    <trip id="9" depart="9.00" from="-450298656#1" to="33071363#7"/>
    <trip id="10" depart="10.00" from="-23747533#1" to="-697813631#1"/>
    <trip id="12" depart="12.00" from="384314184" to="-33040042#1"/>
    <trip id="14" depart="14.00" from="-33782749#1" to="444362407#1"/>
    <trip id="15" depart="15.00" from="-717625484#4" to="-35213568#2"/>
    <trip id="16" depart="16.00" from="33040048#1" to="29047356#3"/>
    <trip id="17" depart="17.00" from="606372018#3" to="35213566"/>
    <trip id="18" depart="18.00" from="-698152723#1" to="-33784421#2"/>
    <trip id="19" depart="19.00" from="24375222#0" to="-35213569"/>
    <trip id="20" depart="20.00" from="222970999#0" to="-35213807#2"/>
    <trip id="21" depart="21.00" from="-29260328" to="440313867"/>
    <trip id="22" depart="22.00" from="616717657" to="496264397#0"/>
    <trip id="23" depart="23.00" from="-33784063#6" to="33784063#6"/>
    <trip id="24" depart="24.00" from="-33790404#1" to="-24337629#0"/>
    <trip id="25" depart="25.00" from="141821922#8" to="33789102#1"/>
    <trip id="27" depart="27.00" from="32463065#5" to="-33783845#0"/>
    <trip id="28" depart="28.00" from="141697339" to="29288480#5"/>
    <trip id="29" depart="29.00" from="-499813383#2" to="33783946#1"/>
    <trip id="30" depart="30.00" from="29024301" to="13848340#7"/>
    <trip id="31" depart="31.00" from="-33784455#6" to="606028889#1"/>
    <trip id="32" depart="32.00" from="355486255#0" to="32443470#4"/>
    <trip id="33" depart="33.00" from="606372019#10" to="591497173"/>
    <trip id="34" depart="34.00" from="222970999#0" to="157062075"/>
    <trip id="35" depart="35.00" from="-29023978#1" to="606372019#9"/>
    <trip id="37" depart="37.00" from="450299186#1" to="-448270435#0"/>
    <trip id="38" depart="38.00" from="35213587#1" to="-33040042#1"/>
    <trip id="39" depart="39.00" from="157062072#5" to="33071363#7"/>
    <trip id="40" depart="40.00" from="-448267193" to="450298217#0"/>
    <trip id="41" depart="41.00" from="33782696#12" to="715774198#2"/>
    <trip id="42" depart="42.00" from="-366205727#3" to="-33783845#0"/>
    <trip id="43" depart="43.00" from="141697286#4" to="384314185"/>
    <trip id="44" depart="44.00" from="-33784455#3" to="571237792#0"/>
    <trip id="45" depart="45.00" from="-33789612" to="698175744"/>
    <trip id="47" depart="47.00" from="24449124#1" to="33784366#1"/>
    <trip id="48" depart="48.00" from="-450302779#0" to="-24386850#1"/>
    <trip id="49" depart="49.00" from="498004706" to="33790404#3"/>
    <trip id="50" depart="50.00" from="-33790381#1" to="606372019#4"/>
    <trip id="51" depart="51.00" from="222970999#0" to="-33782654"/>
    <trip id="52" depart="52.00" from="697813631#1" to="-448268737"/>
    <trip id="53" depart="53.00" from="698432777#1" to="-29023852#4"/>
    <trip id="54" depart="54.00" from="-33783946#3" to="497334562"/>
    <trip id="55" depart="55.00" from="-33071363#6" to="-33040042#0"/>
    <trip id="56" depart="56.00" from="29047390" to="157062072#0"/>
    <trip id="57" depart="57.00" from="-619526004#0" to="33071363#1"/>
    <trip id="58" depart="58.00" from="-33782737#0" to="698173292"/>
    <trip id="59" depart="59.00" from="604371832#3" to="-33784045"/>
    <trip id="60" depart="60.00" from="141697339" to="752091839"/>
    <trip id="62" depart="62.00" from="32443470#4" to="24375232#0"/>
    <trip id="63" depart="63.00" from="32443470#5" to="35213585"/>
    <trip id="64" depart="64.00" from="24375222#0" to="697813630"/>
    <trip id="65" depart="65.00" from="606030108#1" to="441887280#4"/>
    <trip id="66" depart="66.00" from="141697286#8" to="-29047361#3"/>
    <trip id="67" depart="67.00" from="604371832#3" to="-35213566"/>
    <trip id="68" depart="68.00" from="29240869#0" to="450298217#0"/>
    <trip id="69" depart="69.00" from="33782696#5" to="24375730"/>
    <trip id="70" depart="70.00" from="-35475461" to="450298217#0"/>
    <trip id="71" depart="71.00" from="448270454#0" to="33789612"/>
    <trip id="72" depart="72.00" from="-29024093" to="-33782737#0"/>
    <trip id="74" depart="74.00" from="32463065#2" to="-33782711#0"/>
    <trip id="75" depart="75.00" from="-717625484#3" to="-366205724#1"/>
    <trip id="76" depart="76.00" from="-355518067" to="29024148"/>
    <trip id="77" depart="77.00" from="606372019#2" to="-29023978#0"/>
    <trip id="78" depart="78.00" from="-33783046#5" to="141697286#9"/>
    <trip id="79" depart="79.00" from="29024148" to="384311993#4"/>
    <trip id="80" depart="80.00" from="-29023978#1" to="-33784331"/>
    <trip id="81" depart="81.00" from="-29288480#3" to="-33040042#1"/>
    <trip id="82" depart="82.00" from="-35213807#2" to="-384305675#1"/>
    <trip id="83" depart="83.00" from="29024301" to="-448271008"/>
    <trip id="84" depart="84.00" from="32443470#8" to="499813383#2"/>
    <trip id="85" depart="85.00" from="698173292" to="355515194"/>
    <trip id="86" depart="86.00" from="-33789102#0" to="24386850#2"/>
    <trip id="87" depart="87.00" from="29023952" to="-35213807#3"/>
    <trip id="88" depart="88.00" from="498227538#1" to="-466396150#1"/>
    <trip id="89" depart="89.00" from="-29023945#1" to="29240869#3"/>
    <trip id="91" depart="91.00" from="698152816" to="33790404#1"/>
    <trip id="92" depart="92.00" from="-606030108#1" to="32109000"/>
    <trip id="93" depart="93.00" from="-450298803" to="33040040#4"/>
    <trip id="94" depart="94.00" from="-29023978#0" to="33784421#2"/>
    <trip id="95" depart="95.00" from="24337833#0" to="-450303581#0"/>
    <trip id="96" depart="96.00" from="-606028889#1" to="-355493449#1"/>
    <trip id="97" depart="97.00" from="505496938" to="32109000"/>
    <trip id="98" depart="98.00" from="24386850#1" to="33782368#0"/>
    <trip id="99" depart="99.00" from="-28952143#2" to="143955381#17"/>
    <trip id="100" depart="100.00" from="-33782654" to="-32463065#2"/>
    <trip id="101" depart="101.00" from="33784477#2" to="-33782733#6"/>
    <trip id="102" depart="102.00" from="688669194#5" to="-33784477#0"/>
    <trip id="103" depart="103.00" from="-498004706" to="499813383#2"/>
    <trip id="104" depart="104.00" from="33790381#1" to="28952143#3"/>
    <trip id="105" depart="105.00" from="35475414#1" to="384311993#4"/>
    <trip id="106" depart="106.00" from="33782359#1" to="-33784366#0"/>
    <trip id="107" depart="107.00" from="-450302779#0" to="-448267193"/>
    <trip id="108" depart="108.00" from="-34210125" to="604327587#0"/>
    <trip id="109" depart="109.00" from="450300005" to="-29047356#0"/>
    <trip id="110" depart="110.00" from="606030108#1" to="-606028889#1"/>
    <trip id="112" depart="112.00" from="35475414#0" to="604371832#5"/>
    <trip id="113" depart="113.00" from="441887280#6" to="-450299186#0"/>
    <trip id="114" depart="114.00" from="-33782585#1" to="-24337629#2"/>
    <trip id="115" depart="115.00" from="384314184" to="497334562"/>
    <trip id="116" depart="116.00" from="13848340#7" to="-715774198#1"/>
    <trip id="117" depart="117.00" from="-32443470#3" to="-33782711#0"/>
    <trip id="118" depart="118.00" from="-499813383#2" to="-450303581#0"/>
    <trip id="119" depart="119.00" from="141697286#7" to="-450299186#0"/>
    <trip id="120" depart="120.00" from="-29240871" to="-498227538#2"/>
    <trip id="121" depart="121.00" from="399055267" to="32109000"/>
    <trip id="122" depart="122.00" from="-33040041#3" to="-35216685"/>
    <trip id="123" depart="123.00" from="-32443484" to="355487997#3"/>
    <trip id="124" depart="124.00" from="-33790461" to="-448268737"/>
    <trip id="125" depart="125.00" from="-32463065#1" to="-33785059#2"/>
    <trip id="126" depart="126.00" from="-366205727#2" to="33040048#1"/>
    <trip id="127" depart="127.00" from="35213566" to="698156281"/>
    <trip id="128" depart="128.00" from="-375519225" to="33789595"/>
    <trip id="129" depart="129.00" from="157062072#0" to="-29024162"/>
    <trip id="130" depart="130.00" from="33789612" to="-496264397#0"/>
    <trip id="131" depart="131.00" from="-33782581#1" to="29260919#0"/>
    <trip id="132" depart="132.00" from="606381413" to="-143955382#0"/>
    <trip id="133" depart="133.00" from="606026895" to="-33784045"/>
    <trip id="134" depart="134.00" from="-715774198#2" to="450302779#0"/>
    <trip id="135" depart="135.00" from="717625484#1" to="33790404#1"/>
    <trip id="136" depart="136.00" from="-355487528#3" to="355540552"/>
    <trip id="137" depart="137.00" from="33782359#1" to="505230286#1"/>
    <trip id="138" depart="138.00" from="-33789102#0" to="-606030108#1"/>
    <trip id="139" depart="139.00" from="13847053#3" to="737533817#2"/>
    <trip id="140" depart="140.00" from="-33783046#5" to="-33784366#0"/>
    <trip id="141" depart="141.00" from="448270100#0" to="-33784331"/>
    <trip id="142" depart="142.00" from="-33789604#2" to="498227538#1"/>
    <trip id="143" depart="143.00" from="-33790461" to="33785493"/>
    <trip id="145" depart="145.00" from="-29260919#0" to="448264432#1"/>
    <trip id="146" depart="146.00" from="33784063#0" to="33040041#2"/>
    <trip id="147" depart="147.00" from="-498227538#3" to="366560369"/>
    <trip id="148" depart="148.00" from="-33782654" to="366205727#1"/>
    <trip id="149" depart="149.00" from="355493449#1" to="24375730"/>
    <trip id="150" depart="150.00" from="35216689#1" to="499574979"/>
    <trip id="151" depart="151.00" from="-366205726#1" to="29023852#4"/>
    <trip id="152" depart="152.00" from="450299538#0" to="499813383#1"/>
    <trip id="153" depart="153.00" from="697239596#0" to="441887280#3"/>
    <trip id="154" depart="154.00" from="-355491530#0" to="450298803"/>
    <trip id="155" depart="155.00" from="450299538#1" to="450302779#1"/>
    <trip id="156" depart="156.00" from="-717625484#3" to="-24386846"/>
    <trip id="157" depart="157.00" from="-33071363#2" to="-33040042#0"/>
    <trip id="158" depart="158.00" from="450302779#0" to="-32443484"/>
    <trip id="159" depart="159.00" from="441887280#3" to="606372019#3"/>
    <trip id="160" depart="160.00" from="33782654" to="-33783949#0"/>
    <trip id="161" depart="161.00" from="-24337629#0" to="448270454#0"/>
    <trip id="162" depart="162.00" from="-33790343" to="33784063#5"/>
    <trip id="163" depart="163.00" from="-295580708" to="33790404#3"/>
    <trip id="164" depart="164.00" from="13848340#3" to="-450300367#1"/>
    <trip id="165" depart="165.00" from="35213569" to="497334597"/>
    <trip id="167" depart="167.00" from="-505509526#0" to="-33783046#7"/>
    <trip id="168" depart="168.00" from="-33040043#0" to="28952143#3"/>
    <trip id="169" depart="169.00" from="450299538#1" to="157062072#4"/>
    <trip id="170" depart="170.00" from="13848340#7" to="-33782749#0"/>
    <trip id="171" depart="171.00" from="-715774198#2" to="-697817607"/>
    <trip id="172" depart="172.00" from="24375232#0" to="-35213587#1"/>
    <trip id="173" depart="173.00" from="-24337833#0" to="-450302404#0"/>
    <trip id="174" depart="174.00" from="24449125#4" to="-29047390"/>
    <trip id="175" depart="175.00" from="-717625484#1" to="654425409"/>
    <trip id="176" depart="176.00" from="141697339" to="-654441127"/>
    <trip id="177" depart="177.00" from="33784421#0" to="189477572#0"/>
    <trip id="178" depart="178.00" from="295571962#1" to="29023852#2"/>
    <trip id="179" depart="179.00" from="-167534484#0" to="565399612#2"/>
    <trip id="180" depart="180.00" from="13847053#0" to="355493449#1"/>
    <trip id="181" depart="181.00" from="-33790404#3" to="-355490214#0"/>
    <trip id="182" depart="182.00" from="-34210126" to="32463065#1"/>
    <trip id="183" depart="183.00" from="441887280#6" to="33071363#7"/>
    <trip id="184" depart="184.00" from="-499813383#2" to="-157062070"/>
    <trip id="185" depart="185.00" from="-483239114" to="-116269371"/>
    <trip id="186" depart="186.00" from="33071363#1" to="-33040041#0"/>
    <trip id="187" depart="187.00" from="-33785493" to="13848340#0"/>
    <trip id="188" depart="188.00" from="616717659" to="13848340#7"/>
    <trip id="189" depart="189.00" from="33789604#0" to="157062075"/>
    <trip id="190" depart="190.00" from="-33071363#7" to="35216685"/>
    <trip id="192" depart="192.00" from="-448270100#0" to="-23934146#1"/>
    <trip id="193" depart="193.00" from="441887280#3" to="604371833#6"/>
    <trip id="194" depart="194.00" from="688669194#9" to="499813383#2"/>
    <trip id="195" depart="195.00" from="33784462#1" to="13848340#9"/>
    <trip id="196" depart="196.00" from="466396150#0" to="33040041#2"/>
    <trip id="197" depart="197.00" from="24375222#0" to="444362407#1"/>
    <trip id="198" depart="198.00" from="-448264323" to="505496939#0"/>
    <trip id="199" depart="199.00" from="-33783046#3" to="-33071363#1"/>
    <trip id="200" depart="200.00" from="35216684" to="-33789612"/>
    <trip id="201" depart="201.00" from="604371832#7" to="-33789161#0"/>
    <trip id="202" depart="202.00" from="-33782762#0" to="-143955382#1"/>
    <trip id="203" depart="203.00" from="33790461" to="-33784455#0"/>
    <trip id="204" depart="204.00" from="355490519#0" to="-35213581"/>
    <trip id="205" depart="205.00" from="35216685" to="-295576493#1"/>
    <trip id="207" depart="207.00" from="33784455#6" to="566606801"/>
    <trip id="208" depart="208.00" from="-376276766#3" to="606372019#9"/>
    <trip id="209" depart="209.00" from="-29023852#0" to="441887280#4"/>
    <trip id="210" depart="210.00" from="33782568" to="13847053#5"/>
    <trip id="211" depart="211.00" from="-157062072#3" to="-33782368#1"/>
    <trip id="212" depart="212.00" from="-499813383#1" to="-698173292"/>
    <trip id="213" depart="213.00" from="698173292" to="606372019#10"/>
    <trip id="214" depart="214.00" from="35213566" to="450298217#1"/>
    <trip id="215" depart="215.00" from="-167534378" to="505509524#1"/>
    <trip id="216" depart="216.00" from="355499916#1" to="-697239596#0"/>
    <trip id="217" depart="217.00" from="606028889#1" to="33790493#1"/>
    <trip id="218" depart="218.00" from="33071363#2" to="-33782733#6"/>
    <trip id="219" depart="219.00" from="-33784366#2" to="33071363#7"/>
    <trip id="220" depart="220.00" from="141697286#9" to="35213563#1"/>
    <trip id="221" depart="221.00" from="698173292" to="13848340#8"/>
    <trip id="222" depart="222.00" from="24386850#0" to="-35216685"/>
    <trip id="223" depart="223.00" from="-33783845#2" to="444696842"/>
    <trip id="224" depart="224.00" from="-698156281" to="141697288"/>
    <trip id="225" depart="225.00" from="-715774198#2" to="157062068"/>
    <trip id="226" depart="226.00" from="33784421#2" to="697813845"/>
    <trip id="227" depart="227.00" from="33784063#0" to="-32463065#1"/>
    <trip id="229" depart="229.00" from="-33784477#2" to="33040048#2"/>
    <trip id="230" depart="230.00" from="33790384" to="-33785493"/>
    <trip id="231" depart="231.00" from="143955381#11" to="35213569"/>
    <trip id="232" depart="232.00" from="450299186#1" to="33784063#3"/>
    <trip id="233" depart="233.00" from="33790343" to="29023852#1"/>
    <trip id="234" depart="234.00" from="29023952" to="-33783946#4"/>
    <trip id="235" depart="235.00" from="13847053#5" to="497334562"/>
    <trip id="236" depart="236.00" from="-448271008" to="33071363#7"/>
    <trip id="237" depart="237.00" from="-29288765" to="616717658"/>
    <trip id="238" depart="238.00" from="-33790343" to="143957229#1"/>
    <trip id="239" depart="239.00" from="-33782359#1" to="-466396150#0"/>
    <trip id="240" depart="240.00" from="-29024101#0" to="-33783046#3"/>
    <trip id="241" depart="241.00" from="-450298217#0" to="-355488324#0"/>
    <trip id="242" depart="242.00" from="33782711#0" to="29023999"/>
    <trip id="243" depart="243.00" from="-24449124#1" to="-29023852#2"/>
    <trip id="244" depart="244.00" from="466396150#0" to="-33782733#10"/>
    <trip id="245" depart="245.00" from="-355486255#0" to="24375730"/>
    <trip id="246" depart="246.00" from="-33784455#1" to="-448268737"/>
    <trip id="247" depart="247.00" from="29288480#0" to="688669194#12"/>
    <trip id="248" depart="248.00" from="-295571962#0" to="606372018#3"/>
    <trip id="249" depart="249.00" from="-33783046#2" to="-24449123#5"/>
    <trip id="250" depart="250.00" from="-450298696#0" to="441887280#3"/>
    <trip id="251" depart="251.00" from="466396150#0" to="-33790343"/>
    <trip id="252" depart="252.00" from="-29288480#3" to="688669194#1"/>
    <trip id="253" depart="253.00" from="-505230286#2" to="355515164#2"/>
    <trip id="254" depart="254.00" from="-35216685" to="450299538#0"/>
    <trip id="255" depart="255.00" from="355486255#2" to="33784421#2"/>
    <trip id="257" depart="257.00" from="-499813383#2" to="606372019#4"/>
    <trip id="258" depart="258.00" from="33784455#2" to="499813383#2"/>
    <trip id="259" depart="259.00" from="-505560424#2" to="141821922#3"/>
    <trip id="260" depart="260.00" from="-24449125#2" to="33782568"/>
    <trip id="261" depart="261.00" from="222970999#0" to="33783946#2"/>
    <trip id="262" depart="262.00" from="-499813383#2" to="29288765"/>
    <trip id="263" depart="263.00" from="498227538#2" to="-33784458"/>
    <trip id="264" depart="264.00" from="35213567" to="33040042#1"/>
    <trip id="265" depart="265.00" from="33784455#6" to="-29260919#1"/>
    <trip id="266" depart="266.00" from="29288765" to="143955381#15"/>
    <trip id="267" depart="267.00" from="-23934146#1" to="-32109005"/>
    <trip id="268" depart="268.00" from="-450301431#0" to="-189477572#1"/>
    <trip id="269" depart="269.00" from="33071363#2" to="29023999"/>
    <trip id="270" depart="270.00" from="355489502" to="-33040040#5"/>
    <trip id="271" depart="271.00" from="-33040041#1" to="33071363#7"/>
    <trip id="272" depart="272.00" from="24386850#3" to="-33784366#2"/>
    <trip id="273" depart="273.00" from="606030108#1" to="-450303581#0"/>
    <trip id="274" depart="274.00" from="-505560423" to="604327587#1"/>
    <trip id="275" depart="275.00" from="-23747533#1" to="450298217#1"/>
    <trip id="276" depart="276.00" from="355493310#0" to="33782359#1"/>
    <trip id="277" depart="277.00" from="157062072#3" to="-448264432#0"/>
    <trip id="278" depart="278.00" from="13848340#3" to="450301431#2"/>
    <trip id="279" depart="279.00" from="-33790384" to="-450303583#1"/>
    <trip id="280" depart="280.00" from="-33784346#0" to="-29240871"/>
    <trip id="281" depart="281.00" from="33782696#1" to="33785059#3"/>
    <trip id="282" depart="282.00" from="141821922#0" to="654422275"/>
    <trip id="283" depart="283.00" from="606372019#10" to="-295580708"/>
    <trip id="284" depart="284.00" from="-32463065#0" to="24375232#3"/>
    <trip id="285" depart="285.00" from="-499813383#2" to="616717659"/>
    <trip id="286" depart="286.00" from="-697817607" to="29240864"/>
    <trip id="287" depart="287.00" from="24337835#2" to="33789612"/>
    <trip id="288" depart="288.00" from="-450298217#1" to="35216685"/>
    <trip id="289" depart="289.00" from="33784421#4" to="440310062#0"/>
    <trip id="290" depart="290.00" from="-28952143#3" to="33789475"/>
    <trip id="291" depart="291.00" from="-29024101#1" to="170115770#1"/>
    <trip id="292" depart="292.00" from="143957229#3" to="33784421#2"/>
    <trip id="293" depart="293.00" from="33784366#2" to="-355486255#2"/>
    <trip id="294" depart="294.00" from="-24386846" to="-24449125#4"/>
    <trip id="296" depart="296.00" from="616717658" to="499813383#2"/>
    <trip id="297" depart="297.00" from="355486255#2" to="33783845#2"/>
    <trip id="298" depart="298.00" from="450303583#1" to="-35213568#2"/>
    <trip id="299" depart="299.00" from="-29024148" to="-450301431#1"/>
    <trip id="300" depart="300.00" from="33784455#1" to="515665906#0"/>
    <trip id="301" depart="301.00" from="33784455#0" to="35213807#4"/>
    <trip id="302" depart="302.00" from="-23934146#2" to="497334562"/>
    <trip id="303" depart="303.00" from="-29047356#0" to="170115771#3"/>
    <trip id="304" depart="304.00" from="-295571962#1" to="-440313867"/>
    <trip id="305" depart="305.00" from="141697286#7" to="-33784477#2"/>
    <trip id="306" depart="306.00" from="-35213807#2" to="355493449#0"/>
    <trip id="307" depart="307.00" from="35213577" to="33040040#4"/>
    <trip id="308" depart="308.00" from="33782359#1" to="33782568"/>
    <trip id="309" depart="309.00" from="737533817#2" to="498227538#3"/>
    <trip id="310" depart="310.00" from="-35213585" to="32443470#6"/>
    <trip id="311" depart="311.00" from="-496264397#2" to="33071363#4"/>
    <trip id="312" depart="312.00" from="-699653442" to="-355490214#3"/>
    <trip id="313" depart="313.00" from="-606028889#1" to="24337833#1"/>
    <trip id="314" depart="314.00" from="28869409#1" to="143955381#3"/>
    <trip id="315" depart="315.00" from="35216685" to="33782568"/>
    <trip id="316" depart="316.00" from="29024142#1" to="-33790461"/>
    <trip id="317" depart="317.00" from="29047356#0" to="-698175744"/>
    <trip id="318" depart="318.00" from="222970999#0" to="606372018#3"/>
    <trip id="319" depart="319.00" from="-32463065#1" to="-448268737"/>
    <trip id="321" depart="321.00" from="-33784477#2" to="450299538#1"/>
    <trip id="322" depart="322.00" from="355540552" to="-450303581#0"/>
    <trip id="323" depart="323.00" from="-29023999" to="32443470#5"/>
    <trip id="324" depart="324.00" from="-506012307" to="606372019#0"/>
    <trip id="325" depart="325.00" from="715774198#0" to="29288480#5"/>
    <trip id="326" depart="326.00" from="-497334562" to="-29047356#3"/>
    <trip id="327" depart="327.00" from="141697286#8" to="606028889#1"/>
    <trip id="328" depart="328.00" from="699653442" to="33782611#4"/>
    <trip id="329" depart="329.00" from="-34210124" to="498227538#1"/>
    <trip id="330" depart="330.00" from="-29023852#2" to="33783946#2"/>
    <trip id="331" depart="331.00" from="35216689#1" to="33782611#4"/>
    <trip id="332" depart="332.00" from="33784421#4" to="33790384"/>
    <trip id="333" depart="333.00" from="-496264397#0" to="450301431#1"/>
    <trip id="334" depart="334.00" from="-35213570" to="33040041#3"/>
    <trip id="335" depart="335.00" from="345287117" to="143955381#12"/>
    <trip id="336" depart="336.00" from="141697286#0" to="24337629#2"/>
    <trip id="337" depart="337.00" from="33782568" to="33782696#1"/>
    <trip id="339" depart="339.00" from="33783845#0" to="440313867"/>
    <trip id="340" depart="340.00" from="-35213587#1" to="13848340#3"/>
    <trip id="341" depart="341.00" from="-375519227" to="-32443470#5"/>
    <trip id="342" depart="342.00" from="-654425410" to="29047356#1"/>
    <trip id="343" depart="343.00" from="141821922#7" to="384311993#5"/>
    <trip id="344" depart="344.00" from="604327587#0" to="-28952143#2"/>
    <trip id="345" depart="345.00" from="698175744" to="143955381#17"/>
    <trip id="346" depart="346.00" from="384311993#6" to="35213568#0"/>
    <trip id="347" depart="347.00" from="33785059#0" to="141697286#0"/>
    <trip id="349" depart="349.00" from="-33784477#2" to="606372019#12"/>
    <trip id="350" depart="350.00" from="13847053#4" to="143955381#13"/>
    <trip id="351" depart="351.00" from="141697286#9" to="24375232#1"/>
    <trip id="352" depart="352.00" from="-355487528#3" to="498004646"/>
    <trip id="353" depart="353.00" from="24449123#0" to="-355487997#0"/>
    <trip id="354" depart="354.00" from="-157062072#3" to="32109000"/>
    <trip id="355" depart="355.00" from="606372018#2" to="33784455#6"/>
    <trip id="357" depart="357.00" from="33784063#2" to="170115771#3"/>
    <trip id="358" depart="358.00" from="-697813631#1" to="33784421#3"/>
    <trip id="359" depart="359.00" from="444363905" to="32443470#4"/>
    <trip id="360" depart="360.00" from="-366560369" to="-697813630"/>
    <trip id="361" depart="361.00" from="24375222#0" to="606372018#3"/>
    <trip id="362" depart="362.00" from="-29024101#0" to="-33783845#0"/>
    <trip id="363" depart="363.00" from="141697339" to="32463065#0"/>
    <trip id="364" depart="364.00" from="33783845#0" to="-35213807#0"/>
    <trip id="365" depart="365.00" from="-33784063#2" to="606372019#10"/>
    <trip id="366" depart="366.00" from="-33789604#2" to="33782749#1"/>
    <trip id="367" depart="367.00" from="715774197#4" to="33790381#0"/>
    <trip id="368" depart="368.00" from="-29023952" to="366205727#4"/>
    <trip id="369" depart="369.00" from="33784366#2" to="-35213566"/>
    <trip id="370" depart="370.00" from="654422275" to="441887280#5"/>
    <trip id="371" depart="371.00" from="-33071363#7" to="450299538#1"/>
    <trip id="372" depart="372.00" from="24375222#0" to="143955381#13"/>
    <trip id="374" depart="374.00" from="24337835#0" to="32443484"/>
    <trip id="375" depart="375.00" from="-35216683" to="33040048#2"/>
    <trip id="377" depart="377.00" from="441887280#5" to="-29047356#3"/>
    <trip id="378" depart="378.00" from="384311993#3" to="23934146#1"/>
    <trip id="379" depart="379.00" from="-35213568#0" to="565399612#2"/>
    <trip id="380" depart="380.00" from="441887280#4" to="143955381#4"/>
    <trip id="381" depart="381.00" from="-33784063#6" to="-384305675#0"/>
    <trip id="382" depart="382.00" from="441887280#5" to="-24449123#5"/>
    <trip id="383" depart="383.00" from="-498227537" to="28869409#2"/>
    <trip id="384" depart="384.00" from="32443470#7" to="33790343"/>
    <trip id="385" depart="385.00" from="33784477#2" to="355490214#0"/>
    <trip id="386" depart="386.00" from="565399610" to="-571237792#0"/>
    <trip id="387" depart="387.00" from="35475414#1" to="-33790404#2"/>
    <trip id="388" depart="388.00" from="-33784477#2" to="33784063#6"/>
    <trip id="389" depart="389.00" from="-450298696#0" to="-355492012#1"/>
    <trip id="390" depart="390.00" from="-616717655" to="-157062075"/>
    <trip id="391" depart="391.00" from="606026896" to="-698152816"/>
    <trip id="392" depart="392.00" from="-29024093" to="33782641#0"/>
    <trip id="393" depart="393.00" from="-33784421#5" to="157062072#5"/>
    <trip id="395" depart="395.00" from="441887280#4" to="715774198#2"/>
    <trip id="396" depart="396.00" from="33782654" to="409570237#0"/>
    <trip id="397" depart="397.00" from="355517103" to="33782762#0"/>
    <trip id="398" depart="398.00" from="33789161#0" to="571237792#0"/>
    <trip id="399" depart="399.00" from="-448269603" to="737533817#3"/>
    <trip id="400" depart="400.00" from="33785059#0" to="698152723#1"/>
    <trip id="401" depart="401.00" from="606372019#4" to="143955381#16"/>
    <trip id="403" depart="403.00" from="-450303583#0" to="565399612#1"/>
    <trip id="404" depart="404.00" from="29240871" to="-29023852#3"/>
    <trip id="405" depart="405.00" from="355492012#1" to="-33784455#2"/>
    <trip id="406" depart="406.00" from="32443470#8" to="-448264323"/>
    <trip id="407" depart="407.00" from="506012307" to="-32443470#3"/>
    <trip id="408" depart="408.00" from="-698173292" to="-450303581#0"/>
    <trip id="409" depart="409.00" from="-355489502" to="-654425409"/>
    <trip id="410" depart="410.00" from="-33784455#0" to="33784455#0"/>
    <trip id="412" depart="412.00" from="-33071363#2" to="33071363#7"/>
    <trip id="413" depart="413.00" from="-167534484#0" to="606372019#9"/>
    <trip id="414" depart="414.00" from="29023978#0" to="654418930#1"/>
    <trip id="415" depart="415.00" from="-497334562" to="-606026896"/>
    <trip id="417" depart="417.00" from="-35216685" to="-35216689#0"/>
    <trip id="418" depart="418.00" from="29047361#1" to="29024142#0"/>
    <trip id="420" depart="420.00" from="35216684" to="33782652"/>
    <trip id="421" depart="421.00" from="-450301431#0" to="143957229#4"/>
    <trip id="422" depart="422.00" from="-606372018#3" to="35213807#3"/>
    <trip id="423" depart="423.00" from="-34210125" to="384311993#6"/>
    <trip id="424" depart="424.00" from="-697239596#0" to="-698173292"/>
    <trip id="425" depart="425.00" from="35216689#1" to="-33784421#4"/>
    <trip id="426" depart="426.00" from="-450298217#0" to="33782368#0"/>
    <trip id="427" depart="427.00" from="-33790343" to="604327587#1"/>
    <trip id="428" depart="428.00" from="355490214#5" to="-606028889#1"/>