<additional>>
<tlLogic id="1693014276" type="static" programID="2" offset="0">
<phase duration="8" state="gggrrr"/>
<phase duration="6"  state="gggrrr"/>
<phase duration="8" state="gggGGG"/>
<phase duration="6"  state="gggyyy"/>
</tlLogic>
<tlLogic id="1575361842" type="static" programID="2" offset="0">
<phase duration="8" state="gggGGG"/>
<phase duration="6"  state="gggyyy"/>
<phase duration="8" state="gggrrr"/>
<phase duration="6"  state="gggyyy"/>
</tlLogic>
<tlLogic id="1575325597" type="static" programID="2" offset="0">
<phase duration="8" state="gggrrr"/>
<phase duration="6"  state="gggyyy"/>
<phase duration="8" state="gggGGG"/>
<phase duration="6"  state="gggyyy"/>
</tlLogic>
<tlLogic id="210330099" type="static" programID="2" offset="0">
<phase duration="8" state="GGGggg"/>
<phase duration="6"  state="yyyggg"/>
<phase duration="8" state="rrrggg"/>
<phase duration="6"  state="rrrggg"/>
</tlLogic>
</additional>
